@<TRIPOS>MOLECULE
ZINC00000159
 40 43 0 0 0
SMALL
NO_CHARGES


@<TRIPOS>ATOM
      1 C          -0.438    -1.304    -5.894  C    
      2 N           0.664    -1.907    -5.169  N    
      3 C           0.454    -3.105    -4.504  C    
      4 C          -0.596    -3.193    -3.558  C    
      5 C          -0.831    -4.373    -2.831  C    
      6 C          -0.003    -5.491    -3.024  C    
      7 C           1.056    -5.416    -3.944  C    
      8 C           1.307    -4.235    -4.694  C    
      9 C           2.444    -4.185    -5.680  C    
     10 C           2.030    -4.175    -7.125  C    
     11 C           0.701    -4.375    -7.585  C    
     12 C           0.392    -4.352    -8.957  C    
     13 C           1.407    -4.142    -9.901  C    
     14 C           2.733    -3.964    -9.473  C    
     15 C           3.055    -3.990    -8.097  C    
     16 C           4.447    -3.789    -7.640  C    
     17 C           4.433    -2.774    -6.475  C    
     18 C           3.058    -1.928    -4.578  C    
     19 C           1.869    -1.311    -5.163  C    
     20 O           2.034    -0.217    -5.699  O    
     21 Cl         -0.280    -6.909    -2.146  Cl   
     22 N           3.503    -3.142    -5.344  N    
     23 H          -0.662    -0.318    -5.477  H    
     24 H          -1.356    -1.895    -5.867  H    
     25 H          -0.165    -1.188    -6.946  H    
     26 H          -1.199    -2.384    -3.375  H    
     27 H          -1.599    -4.407    -2.157  H    
     28 H           1.649    -6.237    -4.070  H    
     29 H           2.992    -5.130    -5.590  H    
     30 H          -0.064    -4.547    -6.933  H    
     31 H          -0.573    -4.494    -9.269  H    
     32 H           1.181    -4.127   -10.900  H    
     33 H           3.459    -3.821   -10.178  H    
     34 H           4.851    -4.741    -7.290  H    
     35 H           5.100    -3.419    -8.436  H    
     36 H           5.443    -2.688    -6.071  H    
     37 H           4.173    -1.800    -6.902  H    
     38 H           3.879    -1.209    -4.494  H    
     39 H           2.838    -2.217    -3.549  H    
     40 H           4.113    -3.627    -4.680  H    
@<TRIPOS>BOND
     1    1    2 1
     2    2   19 1
     3    2    3 1
     4    3    8 ar
     5    3    4 ar
     6    4    5 ar
     7    5    6 ar
     8    6    7 ar
     9    6   21 1
    10    7    8 ar
    11    8    9 1
    12    9   10 1
    13    9   22 1
    14   10   15 ar
    15   10   11 ar
    16   11   12 ar
    17   12   13 ar
    18   13   14 ar
    19   14   15 ar
    20   15   16 1
    21   16   17 1
    22   17   22 1
    23   18   19 1
    24   18   22 1
    25   19   20 2
    26    1   23 1
    27    1   24 1
    28    1   25 1
    29    4   26 1
    30    5   27 1
    31    7   28 1
    32    9   29 1
    33   11   30 1
    34   12   31 1
    35   13   32 1
    36   14   33 1
    37   16   34 1
    38   16   35 1
    39   17   36 1
    40   17   37 1
    41   18   38 1
    42   18   39 1
    43   22   40 1
@<TRIPOS>MOLECULE
ZINC00085667
 41 44 0 0 0
SMALL
NO_CHARGES


@<TRIPOS>ATOM
      1 C           5.737    -6.571    -2.201  C    
      2 C           5.045    -5.935    -0.956  C    
      3 C           3.504    -6.218    -0.981  C    
      4 C           3.399    -6.153     1.467  C    
      5 C           4.938    -5.868     1.559  C    
      6 C           5.544    -6.436     0.339  C    
      7 O           6.428    -7.282     0.400  O    
      8 C           5.155    -4.316     1.482  C    
      9 C           5.259    -4.380    -0.944  C    
     10 C           3.018    -4.049     0.168  C    
     11 C           2.193    -3.320     1.288  C    
     12 C           2.031    -1.857     0.836  C    
     13 C           2.097    -1.898    -0.698  C    
     14 C           2.293    -3.383    -1.055  C    
     15 C           5.520    -6.436     2.891  C    
     16 N           2.843    -5.555     0.200  N    
     17 N           4.518    -3.772     0.225  N    
     18 H           6.812    -6.371    -2.189  H    
     19 H           5.323    -6.160    -3.124  H    
     20 H           5.589    -7.654    -2.213  H    
     21 H           3.063    -5.860    -1.915  H    
     22 H           3.314    -7.296    -0.952  H    
     23 H           3.209    -7.231     1.480  H    
     24 H           2.881    -5.747     2.340  H    
     25 H           4.757    -3.827     2.370  H    
     26 H           6.226    -4.086     1.486  H    
     27 H           6.327    -4.149    -0.869  H    
     28 H           4.938    -3.940    -1.887  H    
     29 H           1.202    -3.781     1.368  H    
     30 H           2.635    -3.353     2.283  H    
     31 H           1.083    -1.444     1.190  H    
     32 H           2.847    -1.250     1.233  H    
     33 H           1.184    -1.506    -1.153  H    
     34 H           2.946    -1.312    -1.055  H    
     35 H           2.818    -3.468    -2.007  H    
     36 H           1.311    -3.849    -1.195  H    
     37 H           5.031    -5.974     3.752  H    
     38 H           6.592    -6.237     2.959  H    
     39 H           5.366    -7.516     2.950  H    
     40 H           1.844    -5.766     0.163  H    
     41 H           4.665    -2.761     0.204  H    
@<TRIPOS>BOND
     1    1    2 1
     2    2    6 1
     3    2    9 1
     4    2    3 1
     5    3   16 1
     6    4    5 1
     7    4   16 1
     8    5    6 1
     9    5    8 1
    10    5   15 1
    11    6    7 2
    12    8   17 1
    13    9   17 1
    14   10   14 1
    15   10   11 1
    16   10   16 1
    17   10   17 1
    18   11   12 1
    19   12   13 1
    20   13   14 1
    21    1   18 1
    22    1   19 1
    23    1   20 1
    24    3   21 1
    25    3   22 1
    26    4   23 1
    27    4   24 1
    28    8   25 1
    29    8   26 1
    30    9   27 1
    31    9   28 1
    32   11   29 1
    33   11   30 1
    34   12   31 1
    35   12   32 1
    36   13   33 1
    37   13   34 1
    38   14   35 1
    39   14   36 1
    40   15   37 1
    41   15   38 1
    42   15   39 1
    43   16   40 1
    44   17   41 1
@<TRIPOS>MOLECULE
ZINC00087602
 30 32 0 0 0
SMALL
NO_CHARGES


@<TRIPOS>ATOM
      1 C          -3.570     4.824    -0.993  C    
      2 C          -3.198     3.777    -0.025  C    
      3 N          -2.381     2.747    -0.380  N    
      4 C          -2.031     1.767     0.474  C    
      5 S          -1.053     0.543    -0.205  S    
      6 C          -2.496     1.784     1.803  C    
      7 C          -2.272     0.911     2.905  C    
      8 C          -2.976     1.278     4.069  C    
      9 S          -3.844     2.727     3.764  S    
     10 C          -3.343     2.862     2.131  C    
     11 N          -3.685     3.832     1.241  N    
     12 C          -2.967     0.554     5.358  C    
     13 C          -2.476    -0.920     5.209  C    
     14 C          -1.206    -0.963     4.307  C    
     15 C          -1.419    -0.311     2.907  C    
     16 C          -3.600    -1.866     4.693  C    
     17 H          -4.655     4.811    -1.141  H    
     18 H          -3.084     4.661    -1.959  H    
     19 H          -3.275     5.802    -0.611  H    
     20 H          -2.046     2.709    -1.291  H    
     21 H          -2.299     1.089     6.041  H    
     22 H          -3.969     0.568     5.794  H    
     23 H          -2.190    -1.285     6.203  H    
     24 H          -0.402    -0.424     4.819  H    
     25 H          -0.869    -1.997     4.178  H    
     26 H          -1.876    -1.046     2.237  H    
     27 H          -0.433    -0.057     2.514  H    
     28 H          -4.440    -1.864     5.393  H    
     29 H          -3.225    -2.890     4.614  H    
     30 H          -3.963    -1.547     3.713  H    
@<TRIPOS>BOND
     1    1    2 1
     2    2   11 2
     3    2    3 1
     4    3    4 1
     5    4    5 2
     6    4    6 1
     7    6   10 2
     8    6    7 1
     9    7   15 1
    10    7    8 2
    11    8    9 1
    12    8   12 1
    13    9   10 1
    14   10   11 1
    15   12   13 1
    16   13   14 1
    17   13   16 1
    18   14   15 1
    19    1   17 1
    20    1   18 1
    21    1   19 1
    22    3   20 1
    23   12   21 1
    24   12   22 1
    25   13   23 1
    26   14   24 1
    27   14   25 1
    28   15   26 1
    29   15   27 1
    30   16   28 1
    31   16   29 1
    32   16   30 1
@<TRIPOS>MOLECULE
ZINC00124610
 28 30 0 0 0
SMALL
NO_CHARGES


@<TRIPOS>ATOM
      1 C           4.260    -6.777     3.586  C    
      2 C           4.748    -5.465     3.615  C    
      3 C           4.435    -4.580     2.571  C    
      4 C           3.622    -4.978     1.480  C    
      5 C           3.177    -6.329     1.434  C    
      6 C           3.480    -7.205     2.502  C    
      7 C           2.386    -6.871     0.296  C    
      8 C           2.398    -5.985    -0.974  C    
      9 C           2.179    -4.505    -0.601  C    
     10 C           3.283    -3.999     0.385  C    
     11 C           2.941    -2.666     0.849  C    
     12 O           1.986    -2.379     1.557  O    
     13 N           3.809    -1.781     0.421  N    
     14 C           4.725    -2.377    -0.293  C    
     15 O           5.675    -1.829    -0.827  O    
     16 N           4.466    -3.659    -0.338  N    
     17 H           4.481    -7.422     4.346  H    
     18 H           5.326    -5.153     4.396  H    
     19 H           4.805    -3.629     2.624  H    
     20 H           3.148    -8.172     2.493  H    
     21 H           2.771    -7.853     0.012  H    
     22 H           1.354    -7.004     0.630  H    
     23 H           3.356    -6.092    -1.489  H    
     24 H           1.612    -6.313    -1.657  H    
     25 H           2.168    -3.904    -1.514  H    
     26 H           1.191    -4.412    -0.138  H    
     27 H           3.779    -0.831     0.614  H    
     28 H           5.008    -4.302    -0.822  H    
@<TRIPOS>BOND
     1    1    6 ar
     2    1    2 ar
     3    2    3 ar
     4    3    4 ar
     5    4   10 1
     6    4    5 ar
     7    5    6 ar
     8    5    7 1
     9    7    8 1
    10    8    9 1
    11    9   10 1
    12   10   16 1
    13   10   11 1
    14   11   12 2
    15   11   13 1
    16   13   14 1
    17   14   15 2
    18   14   16 1
    19    1   17 1
    20    2   18 1
    21    3   19 1
    22    6   20 1
    23    7   21 1
    24    7   22 1
    25    8   23 1
    26    8   24 1
    27    9   25 1
    28    9   26 1
    29   13   27 1
    30   16   28 1
@<TRIPOS>MOLECULE
ZINC00125817
 48 50 0 0 0
SMALL
NO_CHARGES


@<TRIPOS>ATOM
      1 C           2.848     3.405    -5.758  C    
      2 C           2.970     1.742    -7.607  C    
      3 C           2.809     0.242    -7.987  C    
      4 C           1.426    -0.450    -7.584  C    
      5 C           0.866     0.137    -6.217  C    
      6 C           1.125     1.644    -5.960  C    
      7 C           1.651    -1.928    -7.348  C    
      8 C           0.858    -2.887    -7.904  C    
      9 C           0.887    -4.294    -7.413  C    
     10 C           2.085    -4.704    -6.530  C    
     11 C           2.752    -2.379    -6.462  C    
     12 C           3.503    -3.918    -4.657  C    
     13 C          -0.121    -2.539    -8.968  C    
     14 C          -0.262    -1.116    -9.329  C    
     15 C           0.429    -0.151    -8.670  C    
     16 C           0.163     1.078    -8.974  C    
     17 N          -0.077     2.161    -9.279  N    
     18 N          -1.090    -0.817   -10.310  N    
     19 C           0.260    -3.218   -10.110  C    
     20 N           0.566    -3.786   -11.061  N    
     21 C          -1.388    -2.979    -8.608  C    
     22 N          -2.442    -3.357    -8.348  N    
     23 N           2.553     2.009    -6.198  N    
     24 N           2.432    -3.575    -5.632  N    
     25 H           3.896     3.653    -5.938  H    
     26 H           2.667     3.503    -4.684  H    
     27 H           2.221     4.129    -6.285  H    
     28 H           4.026     2.000    -7.726  H    
     29 H           2.421     2.378    -8.298  H    
     30 H           2.981     0.133    -9.064  H    
     31 H           3.669    -0.232    -7.519  H    
     32 H          -0.212    -0.047    -6.152  H    
     33 H           1.286    -0.369    -5.348  H    
     34 H           0.458     2.257    -6.570  H    
     35 H           0.860     1.848    -4.918  H    
     36 H          -0.018    -4.456    -6.821  H    
     37 H           0.853    -5.000    -8.247  H    
     38 H           1.806    -5.588    -5.948  H    
     39 H           2.935    -4.975    -7.165  H    
     40 H           3.615    -2.603    -7.101  H    
     41 H           3.077    -1.591    -5.782  H    
     42 H           3.236    -4.815    -4.091  H    
     43 H           3.628    -3.103    -3.940  H    
     44 H           4.458    -4.092    -5.159  H    
     45 H          -1.198     0.063   -10.593  H    
     46 H          -1.547    -1.494   -10.758  H    
     47 H           3.118     1.397    -5.604  H    
     48 H           1.592    -3.353    -5.088  H    
@<TRIPOS>BOND
     1    1   23 1
     2    2    3 1
     3    2   23 1
     4    3    4 1
     5    4   15 1
     6    4    5 1
     7    4    7 1
     8    5    6 1
     9    6   23 1
    10    7   11 1
    11    7    8 2
    12    8    9 1
    13    8   13 1
    14    9   10 1
    15   10   24 1
    16   11   24 1
    17   12   24 1
    18   13   14 1
    19   13   19 1
    20   13   21 1
    21   14   15 2
    22   14   18 1
    23   15   16 1
    24   16   17 3
    25   19   20 3
    26   21   22 3
    27    1   25 1
    28    1   26 1
    29    1   27 1
    30    2   28 1
    31    2   29 1
    32    3   30 1
    33    3   31 1
    34    5   32 1
    35    5   33 1
    36    6   34 1
    37    6   35 1
    38    9   36 1
    39    9   37 1
    40   10   38 1
    41   10   39 1
    42   11   40 1
    43   11   41 1
    44   12   42 1
    45   12   43 1
    46   12   44 1
    47   18   45 1
    48   18   46 1
    49   23   47 1
    50   24   48 1
@<TRIPOS>MOLECULE
ZINC00134527
 19 21 0 0 0
SMALL
NO_CHARGES


@<TRIPOS>ATOM
      1 C           3.149    -8.039    -0.444  C    
      2 C           3.184    -7.562    -1.683  C    
      3 C           2.741    -6.191    -1.588  C    
      4 C           1.214    -6.101    -1.296  C    
      5 C           1.172    -6.653     0.145  C    
      6 C           2.685    -6.946     0.380  C    
      7 O           3.321    -5.869    -0.319  O    
      8 C           0.553    -5.322     0.641  C    
      9 C           0.596    -4.767    -0.808  C    
     10 F          -0.642    -4.530    -1.362  F    
     11 F           1.412    -3.671    -0.979  F    
     12 F          -0.717    -5.493     1.148  F    
     13 F           1.338    -4.636     1.544  F    
     14 H           3.539    -8.894    -0.127  H    
     15 H           3.605    -7.998    -2.471  H    
     16 H           3.077    -5.553    -2.408  H    
     17 H           0.589    -6.660    -2.001  H    
     18 H           0.523    -7.528     0.263  H    
     19 H           2.965    -7.025     1.432  H    
@<TRIPOS>BOND
     1    1    6 1
     2    1    2 2
     3    2    3 1
     4    3    7 1
     5    3    4 1
     6    4    9 1
     7    4    5 1
     8    5    6 1
     9    5    8 1
    10    6    7 1
    11    8    9 1
    12    8   12 1
    13    8   13 1
    14    9   10 1
    15    9   11 1
    16    1   14 1
    17    2   15 1
    18    3   16 1
    19    4   17 1
    20    5   18 1
    21    6   19 1
@<TRIPOS>MOLECULE
ZINC00160101
 22 22 0 0 0
SMALL
NO_CHARGES


@<TRIPOS>ATOM
      1 C           3.480    -1.487    -0.157  C    
      2 C           1.995    -1.072    -0.319  C    
      3 C           1.810     0.027    -1.234  C    
      4 C           0.908    -0.264    -2.177  C    
      5 C           0.343    -1.561    -1.973  C    
      6 C           0.488    -3.072     0.024  C    
      7 C           0.491     0.543    -3.075  C    
      8 N           0.054     1.249    -3.871  N    
      9 N           2.391     1.178    -1.079  N    
     10 N           1.202    -2.176    -0.929  N    
     11 H           3.905    -1.794    -1.115  H    
     12 H           3.557    -2.324     0.542  H    
     13 H           4.070    -0.659     0.239  H    
     14 H           1.589    -0.778     0.657  H    
     15 H          -0.707    -1.465    -1.661  H    
     16 H           0.399    -2.167    -2.881  H    
     17 H           1.206    -3.554     0.689  H    
     18 H          -0.042    -3.851    -0.524  H    
     19 H          -0.230    -2.515     0.626  H    
     20 H           2.234     1.855    -1.689  H    
     21 H           2.949     1.317    -0.357  H    
     22 H           1.872    -2.759    -1.442  H    
@<TRIPOS>BOND
     1    1    2 1
     2    2    3 1
     3    2   10 1
     4    3    4 2
     5    3    9 1
     6    4    5 1
     7    4    7 1
     8    5   10 1
     9    6   10 1
    10    7    8 3
    11    1   11 1
    12    1   12 1
    13    1   13 1
    14    2   14 1
    15    5   15 1
    16    5   16 1
    17    6   17 1
    18    6   18 1
    19    6   19 1
    20    9   20 1
    21    9   21 1
    22   10   22 1
@<TRIPOS>MOLECULE
ZINC00333066
 13 13 0 0 0
SMALL
NO_CHARGES


@<TRIPOS>ATOM
      1 C           5.421    -8.743    -0.773  C    
      2 C           4.851   -10.001    -0.515  C    
      3 N           3.875   -10.121     0.420  N    
      4 C           3.414    -9.059     1.130  C    
      5 C           3.949    -7.774     0.915  C    
      6 C           4.969    -7.617    -0.053  C    
      7 N           5.526    -6.422    -0.313  N    
      8 Cl          3.353    -6.470     1.820  Cl   
      9 H           6.156    -8.658    -1.477  H    
     10 H           5.165   -10.826    -1.023  H    
     11 H           2.677    -9.210     1.821  H    
     12 H           5.238    -5.629     0.165  H    
     13 H           6.225    -6.345    -0.983  H    
@<TRIPOS>BOND
     1    1    6 ar
     2    1    2 ar
     3    2    3 ar
     4    3    4 ar
     5    4    5 ar
     6    5    6 ar
     7    5    8 1
     8    6    7 1
     9    1    9 1
    10    2   10 1
    11    4   11 1
    12    7   12 1
    13    7   13 1
@<TRIPOS>MOLECULE
ZINC00338317
 45 48 0 0 0
SMALL
NO_CHARGES


@<TRIPOS>ATOM
      1 C          -2.098     2.703     2.669  C    
      2 C          -1.779     4.123     2.126  C    
      3 C          -1.639     5.266     3.173  C    
      4 C          -1.331     4.907     4.649  C    
      5 C          -1.306     6.233     5.445  C    
      6 C          -2.665     7.052     5.297  C    
      7 C          -3.626     6.649     6.493  C    
      8 C          -5.149     6.574     6.177  C    
      9 C          -5.588     7.612     5.111  C    
     10 C          -4.753     7.386     3.796  C    
     11 C          -3.375     6.853     3.994  C    
     12 C          -2.884     5.998     3.062  C    
     13 O          -3.517     5.663     1.944  O    
     14 C          -2.910     4.624     1.341  C    
     15 O          -3.349     4.078     0.185  O    
     16 C          -4.774     8.611     2.839  C    
     17 O          -5.449     8.933     5.671  O    
     18 C          -6.732     9.546     5.623  C    
     19 C          -7.704     8.374     5.565  C    
     20 O          -6.986     7.406     4.812  O    
     21 C          -2.233     8.557     5.409  C    
     22 H          -2.997     2.710     3.291  H    
     23 H          -1.261     2.336     3.264  H    
     24 H          -2.257     2.005     1.843  H    
     25 H          -0.887     4.073     1.489  H    
     26 H          -0.847     5.935     2.813  H    
     27 H          -2.093     4.244     5.070  H    
     28 H          -0.358     4.412     4.722  H    
     29 H          -1.075     6.023     6.498  H    
     30 H          -0.447     6.806     5.065  H    
     31 H          -3.363     5.658     6.880  H    
     32 H          -3.483     7.339     7.331  H    
     33 H          -5.385     5.573     5.805  H    
     34 H          -5.719     6.719     7.101  H    
     35 H          -5.322     6.609     3.274  H    
     36 H          -5.805     8.863     2.580  H    
     37 H          -4.239     8.389     1.911  H    
     38 H          -4.308     9.485     3.301  H    
     39 H          -6.897    10.164     6.506  H    
     40 H          -6.813    10.161     4.723  H    
     41 H          -7.918     7.988     6.564  H    
     42 H          -8.637     8.641     5.065  H    
     43 H          -1.677     8.736     6.336  H    
     44 H          -3.077     9.243     5.408  H    
     45 H          -1.589     8.837     4.569  H    
@<TRIPOS>BOND
     1    1    2 1
     2    2   14 1
     3    2    3 1
     4    3   12 1
     5    3    4 1
     6    4    5 1
     7    5    6 1
     8    6   11 1
     9    6    7 1
    10    6   21 1
    11    7    8 1
    12    8    9 1
    13    9   20 1
    14    9   10 1
    15    9   17 1
    16   10   11 1
    17   10   16 1
    18   11   12 2
    19   12   13 1
    20   13   14 1
    21   14   15 2
    22   17   18 1
    23   18   19 1
    24   19   20 1
    25    1   22 1
    26    1   23 1
    27    1   24 1
    28    2   25 1
    29    3   26 1
    30    4   27 1
    31    4   28 1
    32    5   29 1
    33    5   30 1
    34    7   31 1
    35    7   32 1
    36    8   33 1
    37    8   34 1
    38   10   35 1
    39   16   36 1
    40   16   37 1
    41   16   38 1
    42   18   39 1
    43   18   40 1
    44   19   41 1
    45   19   42 1
    46   21   43 1
    47   21   44 1
    48   21   45 1
@<TRIPOS>MOLECULE
ZINC00342245
 21 22 0 0 0
SMALL
NO_CHARGES


@<TRIPOS>ATOM
      1 C          -0.834    -6.156     0.548  C    
      2 N           0.541    -5.697     0.612  N    
      3 C           1.586    -6.512     0.327  C    
      4 O           1.413    -7.682    -0.001  O    
      5 C           2.880    -6.060     0.394  C    
      6 N           3.924    -6.833     0.121  N    
      7 C           5.197    -6.378     0.189  C    
      8 N           5.398    -5.088     0.550  N    
      9 N           4.394    -4.268     0.835  N    
     10 C           3.101    -4.723     0.768  C    
     11 N           2.018    -3.951     1.042  N    
     12 C           0.778    -4.416     0.970  C    
     13 O          -0.107    -3.614     1.243  O    
     14 C           4.761    -2.932     1.201  C    
     15 H          -1.307    -6.048     1.528  H    
     16 H          -0.944    -7.202     0.251  H    
     17 H          -1.391    -5.556    -0.177  H    
     18 H           5.985    -6.989    -0.025  H    
     19 H           5.401    -2.959     2.085  H    
     20 H           3.904    -2.295     1.428  H    
     21 H           5.315    -2.469     0.381  H    
@<TRIPOS>BOND
     1    1    2 1
     2    2   12 1
     3    2    3 1
     4    3    4 2
     5    3    5 1
     6    5   10 1
     7    5    6 2
     8    6    7 1
     9    7    8 2
    10    8    9 1
    11    9   10 1
    12    9   14 1
    13   10   11 2
    14   11   12 1
    15   12   13 2
    16    1   15 1
    17    1   16 1
    18    1   17 1
    19    7   18 1
    20   14   19 1
    21   14   20 1
    22   14   21 1
@<TRIPOS>MOLECULE
ZINC00345306
 30 32 0 0 0
SMALL
NO_CHARGES


@<TRIPOS>ATOM
      1 C           9.870    -5.545     3.650  C    
      2 C           8.535    -5.571     3.031  C    
      3 C           8.257    -6.155     1.830  C    
      4 C           6.967    -6.102     1.343  C    
      5 O           6.509    -7.114     0.826  O    
      6 C           6.080    -5.091     1.769  C    
      7 C           6.374    -4.454     3.011  C    
      8 C           5.517    -3.426     3.497  C    
      9 C           4.333    -3.081     2.787  C    
     10 C           3.425    -2.100     3.276  C    
     11 C           2.261    -1.756     2.574  C    
     12 C           1.973    -2.385     1.359  C    
     13 C           2.850    -3.354     0.852  C    
     14 C           4.037    -3.724     1.544  C    
     15 C           4.930    -4.703     1.025  C    
     16 Cl          4.669    -5.357    -0.534  Cl   
     17 Cl          5.960    -2.540     4.891  Cl   
     18 C           7.524    -4.903     3.700  C    
     19 O           7.512    -4.943     4.925  O    
     20 C           9.286    -6.793     0.999  C    
     21 H          10.180    -4.509     3.810  H    
     22 H          10.653    -6.025     3.066  H    
     23 H           9.842    -6.052     4.616  H    
     24 H           3.585    -1.618     4.162  H    
     25 H           1.622    -1.051     2.949  H    
     26 H           1.123    -2.139     0.846  H    
     27 H           2.590    -3.789    -0.034  H    
     28 H          10.074    -6.074     0.765  H    
     29 H           8.905    -7.165     0.045  H    
     30 H           9.720    -7.642     1.532  H    
@<TRIPOS>BOND
     1    1    2 1
     2    2   18 1
     3    2    3 2
     4    3    4 1
     5    3   20 1
     6    4    5 2
     7    4    6 1
     8    6   15 ar
     9    6    7 ar
    10    7    8 ar
    11    7   18 1
    12    8    9 ar
    13    8   17 1
    14    9   14 ar
    15    9   10 ar
    16   10   11 ar
    17   11   12 ar
    18   12   13 ar
    19   13   14 ar
    20   14   15 ar
    21   15   16 1
    22   18   19 2
    23    1   21 1
    24    1   22 1
    25    1   23 1
    26   10   24 1
    27   11   25 1
    28   12   26 1
    29   13   27 1
    30   20   28 1
    31   20   29 1
    32   20   30 1
@<TRIPOS>MOLECULE
ZINC00404322
 16 16 0 0 0
SMALL
NO_CHARGES


@<TRIPOS>ATOM
      1 C           0.441     2.192    -0.454  C    
      2 C           0.376     2.632     0.951  C    
      3 C          -0.579     3.557     1.426  C    
      4 N          -0.559     3.899     2.738  N    
      5 C           0.334     3.403     3.639  C    
      6 C           1.291     2.475     3.159  C    
      7 N           1.269     2.133     1.846  N    
      8 Cl          2.482     1.746     4.114  Cl   
      9 C           0.222     3.878     5.036  C    
     10 H           1.419     2.445    -0.869  H    
     11 H          -0.326     2.662    -1.071  H    
     12 H           0.308     1.110    -0.504  H    
     13 H          -1.278     3.968     0.804  H    
     14 H           0.344     4.962     5.061  H    
     15 H           0.971     3.435     5.695  H    
     16 H          -0.766     3.628     5.426  H    
@<TRIPOS>BOND
     1    1    2 1
     2    2    7 ar
     3    2    3 ar
     4    3    4 ar
     5    4    5 ar
     6    5    6 ar
     7    5    9 1
     8    6    7 ar
     9    6    8 1
    10    1   10 1
    11    1   11 1
    12    1   12 1
    13    3   13 1
    14    9   14 1
    15    9   15 1
    16    9   16 1
@<TRIPOS>MOLECULE
ZINC00977966
 21 22 0 0 0
SMALL
NO_CHARGES


@<TRIPOS>ATOM
      1 C          -1.215    -3.891    -1.547  C    
      2 C           0.184    -3.675    -0.915  C    
      3 C           1.014    -4.897    -0.654  C    
      4 C           0.497    -6.217    -0.654  C    
      5 C           1.307    -7.313    -0.311  C    
      6 C           2.650    -7.112     0.045  C    
      7 C           3.188    -5.815     0.044  C    
      8 C           2.383    -4.713    -0.310  C    
      9 N           2.981    -3.487    -0.347  N    
     10 C           2.508    -2.434    -0.996  C    
     11 O           3.177    -1.413    -1.002  O    
     12 S           1.088    -2.488    -1.957  S    
     13 H          -1.710    -2.931    -1.736  H    
     14 H          -1.861    -4.461    -0.870  H    
     15 H          -1.134    -4.430    -2.496  H    
     16 H           0.019    -3.185     0.048  H    
     17 H          -0.480    -6.402    -0.890  H    
     18 H           0.918    -8.261    -0.317  H    
     19 H           3.241    -7.910     0.287  H    
     20 H           4.168    -5.680     0.287  H    
     21 H           3.850    -3.395     0.080  H    
@<TRIPOS>BOND
     1    1    2 1
     2    2   12 1
     3    2    3 1
     4    3    8 ar
     5    3    4 ar
     6    4    5 ar
     7    5    6 ar
     8    6    7 ar
     9    7    8 ar
    10    8    9 1
    11    9   10 1
    12   10   11 2
    13   10   12 1
    14    1   13 1
    15    1   14 1
    16    1   15 1
    17    2   16 1
    18    4   17 1
    19    5   18 1
    20    6   19 1
    21    7   20 1
    22    9   21 1
@<TRIPOS>MOLECULE
ZINC01081097
 31 32 0 0 0
SMALL
NO_CHARGES


@<TRIPOS>ATOM
      1 C           6.737    -1.891    -2.037  C    
      2 C           7.093    -1.583    -3.531  C    
      3 C           7.368    -0.030    -3.679  C    
      4 C           6.992     0.568    -5.066  C    
      5 C           5.515     0.267    -5.386  C    
      6 C           5.632    -1.226    -5.766  C    
      7 C           5.893    -2.061    -4.456  C    
      8 C           6.874    -1.175    -6.699  C    
      9 C           4.361    -1.737    -6.508  C    
     10 C           8.400    -2.400    -3.836  C    
     11 N           7.723    -0.087    -6.171  N    
     12 H           5.828    -1.362    -1.735  H    
     13 H           7.543    -1.578    -1.370  H    
     14 H           6.566    -2.961    -1.887  H    
     15 H           6.791     0.526    -2.935  H    
     16 H           8.419     0.193    -3.480  H    
     17 H           7.176     1.646    -5.080  H    
     18 H           4.853     0.445    -4.533  H    
     19 H           5.178     0.882    -6.226  H    
     20 H           6.035    -3.111    -4.733  H    
     21 H           4.963    -2.028    -3.877  H    
     22 H           7.404    -2.128    -6.734  H    
     23 H           6.594    -0.903    -7.719  H    
     24 H           3.480    -1.636    -5.871  H    
     25 H           4.479    -2.789    -6.773  H    
     26 H           4.185    -1.169    -7.423  H    
     27 H           9.205    -2.107    -3.161  H    
     28 H           8.753    -2.245    -4.852  H    
     29 H           8.230    -3.470    -3.704  H    
     30 H           7.888     0.594    -6.915  H    
     31 H           8.623    -0.445    -5.841  H    
@<TRIPOS>BOND
     1    1    2 1
     2    2    7 1
     3    2    3 1
     4    2   10 1
     5    3    4 1
     6    4    5 1
     7    4   11 1
     8    5    6 1
     9    6    7 1
    10    6    8 1
    11    6    9 1
    12    8   11 1
    13    1   12 1
    14    1   13 1
    15    1   14 1
    16    3   15 1
    17    3   16 1
    18    4   17 1
    19    5   18 1
    20    5   19 1
    21    7   20 1
    22    7   21 1
    23    8   22 1
    24    8   23 1
    25    9   24 1
    26    9   25 1
    27    9   26 1
    28   10   27 1
    29   10   28 1
    30   10   29 1
    31   11   30 1
    32   11   31 1
@<TRIPOS>MOLECULE
ZINC00044017
 41 43 0 0 0
SMALL
NO_CHARGES


@<TRIPOS>ATOM
      1 C           3.656    -1.892    -0.509  C    
      2 C           2.455    -2.458    -1.339  C    
      3 C           1.354    -1.359    -1.530  C    
      4 C           1.710    -0.333    -2.498  C    
      5 C           2.539    -0.578    -3.541  C    
      6 C           2.807     0.535    -4.475  C    
      7 C           1.992     1.759    -4.309  C    
      8 C           1.106     1.797    -3.278  C    
      9 O           1.187     0.893    -2.275  O    
     10 N           0.225     2.725    -3.110  N    
     11 C           1.789     2.505    -5.334  C    
     12 N           1.608     3.142    -6.283  N    
     13 C           4.254     0.938    -4.364  C    
     14 C           4.867     1.383    -3.182  C    
     15 C           6.200     1.614    -3.467  C    
     16 C           6.386     1.332    -4.813  C    
     17 N           5.207     0.934    -5.351  N    
     18 C           5.015     0.590    -6.737  C    
     19 C           3.101    -1.823    -3.716  C    
     20 O           3.676    -2.107    -4.761  O    
     21 C           2.941    -2.909    -2.761  C    
     22 C           1.852    -3.681    -0.575  C    
     23 H           4.426    -2.655    -0.376  H    
     24 H           3.325    -1.570     0.480  H    
     25 H           4.111    -1.037    -1.010  H    
     26 H           0.424    -1.825    -1.878  H    
     27 H           1.148    -0.879    -0.568  H    
     28 H           2.575     0.137    -5.471  H    
     29 H          -0.333     2.691    -2.378  H    
     30 H           0.161     3.406    -3.724  H    
     31 H           4.401     1.503    -2.284  H    
     32 H           6.908     1.933    -2.808  H    
     33 H           7.261     1.410    -5.329  H    
     34 H           4.661    -0.436    -6.835  H    
     35 H           5.951     0.679    -7.291  H    
     36 H           4.285     1.256    -7.200  H    
     37 H           3.900    -3.430    -2.667  H    
     38 H           2.218    -3.614    -3.191  H    
     39 H           2.602    -4.464    -0.450  H    
     40 H           1.008    -4.104    -1.124  H    
     41 H           1.498    -3.381     0.413  H    
@<TRIPOS>BOND
     1    1    2 1
     2    2   21 1
     3    2    3 1
     4    2   22 1
     5    3    4 1
     6    4    9 1
     7    4    5 2
     8    5    6 1
     9    5   19 1
    10    6    7 1
    11    6   13 1
    12    7    8 2
    13    7   11 1
    14    8    9 1
    15    8   10 1
    16   11   12 3
    17   13   17 1
    18   13   14 2
    19   14   15 1
    20   15   16 2
    21   16   17 1
    22   17   18 1
    23   19   20 2
    24   19   21 1
    25    1   23 1
    26    1   24 1
    27    1   25 1
    28    3   26 1
    29    3   27 1
    30    6   28 1
    31   10   29 1
    32   10   30 1
    33   14   31 1
    34   15   32 1
    35   16   33 1
    36   18   34 1
    37   18   35 1
    38   18   36 1
    39   21   37 1
    40   21   38 1
    41   22   39 1
    42   22   40 1
    43   22   41 1
@<TRIPOS>MOLECULE
ZINC00057136
 17 17 0 0 0
SMALL
NO_CHARGES


@<TRIPOS>ATOM
      1 C           3.955    -6.835     1.794  C    
      2 C           3.060    -5.855     2.246  C    
      3 C           2.318    -5.027     1.355  C    
      4 C           2.517    -5.222    -0.058  C    
      5 C           3.429    -6.226    -0.488  C    
      6 C           4.141    -7.025     0.421  C    
      7 Cl          5.218    -8.207    -0.135  Cl   
      8 C           1.814    -4.421    -1.119  C    
      9 F           0.455    -4.607    -1.038  F    
     10 F           2.129    -3.089    -1.000  F    
     11 F           2.128    -4.731    -2.422  F    
     12 N           1.467    -4.103     1.917  N    
     13 O           1.321    -3.982     3.107  O    
     14 O           0.720    -3.270     1.258  O    
     15 H           4.467    -7.406     2.470  H    
     16 H           2.961    -5.757     3.259  H    
     17 H           3.593    -6.392    -1.482  H    
@<TRIPOS>BOND
     1    1    6 ar
     2    1    2 ar
     3    2    3 ar
     4    3    4 ar
     5    3   12 1
     6    4    5 ar
     7    4    8 1
     8    5    6 ar
     9    6    7 1
    10    8    9 1
    11    8   10 1
    12    8   11 1
    13   12   13 2
    14   12   14 1
    15    1   15 1
    16    2   16 1
    17    5   17 1
@<TRIPOS>MOLECULE
ZINC00064950
 23 25 0 0 0
SMALL
NO_CHARGES


@<TRIPOS>ATOM
      1 C           0.808    11.089     8.908  C    
      2 C           2.100    10.839     9.415  C    
      3 C           2.905     9.830     8.847  C    
      4 C           2.398     9.082     7.771  C    
      5 C           1.119     9.328     7.268  C    
      6 C           0.307    10.333     7.827  C    
      7 C           0.931     8.430     6.225  C    
      8 C          -0.151     8.213     5.357  C    
      9 C          -0.039     7.206     4.379  C    
     10 C           1.139     6.435     4.279  C    
     11 C           2.236     6.648     5.151  C    
     12 C           2.100     7.665     6.125  C    
     13 O           2.982     8.076     7.075  O    
     14 C           3.384     5.879     5.035  C    
     15 O           4.360     6.019     5.759  O    
     16 H           0.232    11.821     9.325  H    
     17 H           2.454    11.391    10.198  H    
     18 H           3.841     9.646     9.211  H    
     19 H          -0.629    10.514     7.460  H    
     20 H          -1.004     8.772     5.430  H    
     21 H          -0.816     7.035     3.740  H    
     22 H           1.181     5.713     3.555  H    
     23 H           3.443     5.174     4.338  H    
@<TRIPOS>BOND
     1    1    6 ar
     2    1    2 ar
     3    2    3 ar
     4    3    4 ar
     5    4   13 1
     6    4    5 ar
     7    5    6 ar
     8    5    7 1
     9    7   12 ar
    10    7    8 ar
    11    8    9 ar
    12    9   10 ar
    13   10   11 ar
    14   11   12 ar
    15   11   14 1
    16   12   13 1
    17   14   15 2
    18    1   16 1
    19    2   17 1
    20    3   18 1
    21    6   19 1
    22    8   20 1
    23    9   21 1
    24   10   22 1
    25   14   23 1
@<TRIPOS>MOLECULE
ZINC00100054
 37 40 0 0 0
SMALL
NO_CHARGES


@<TRIPOS>ATOM
      1 C           4.221    -8.862    -0.436  C    
      2 C           2.919    -8.548    -0.023  C    
      3 C           2.674    -7.348     0.668  C    
      4 C           3.721    -6.442     0.962  C    
      5 C           5.041    -6.765     0.536  C    
      6 C           5.274    -7.976    -0.161  C    
      7 C           6.163    -5.817     0.767  C    
      8 C           5.444    -5.420     3.212  C    
      9 C           4.213    -4.770     2.675  C    
     10 N           3.457    -5.290     1.668  N    
     11 C           2.392    -4.479     1.476  C    
     12 C           2.446    -3.423     2.370  C    
     13 C           3.584    -3.606     3.129  C    
     14 C           6.046    -4.753     4.407  C    
     15 C           6.714    -3.510     4.287  C    
     16 C           7.288    -2.886     5.409  C    
     17 C           7.201    -3.490     6.674  C    
     18 C           6.544    -4.724     6.820  C    
     19 C           5.975    -5.349     5.692  C    
     20 Cl          6.435    -5.451     8.341  Cl   
     21 N           6.511    -5.618     2.193  N    
     22 H           4.401    -9.734    -0.939  H    
     23 H           2.153    -9.195    -0.220  H    
     24 H           1.718    -7.158     0.974  H    
     25 H           6.212    -8.224    -0.483  H    
     26 H           7.078    -6.140     0.266  H    
     27 H           5.898    -4.852     0.326  H    
     28 H           5.127    -6.427     3.499  H    
     29 H           1.652    -4.599     0.781  H    
     30 H           1.767    -2.662     2.459  H    
     31 H           3.881    -2.997     3.895  H    
     32 H           6.790    -3.047     3.380  H    
     33 H           7.768    -1.988     5.304  H    
     34 H           7.616    -3.023     7.481  H    
     35 H           5.501    -6.243     5.812  H    
     36 H           7.062    -6.425     2.493  H    
     37 H           7.125    -4.804     2.219  H    
@<TRIPOS>BOND
     1    1    6 ar
     2    1    2 ar
     3    2    3 ar
     4    3    4 ar
     5    4   10 1
     6    4    5 ar
     7    5    6 ar
     8    5    7 1
     9    7   21 1
    10    8    9 1
    11    8   14 1
    12    8   21 1
    13    9   13 2
    14    9   10 1
    15   10   11 1
    16   11   12 2
    17   12   13 1
    18   14   19 ar
    19   14   15 ar
    20   15   16 ar
    21   16   17 ar
    22   17   18 ar
    23   18   19 ar
    24   18   20 1
    25    1   22 1
    26    2   23 1
    27    3   24 1
    28    6   25 1
    29    7   26 1
    30    7   27 1
    31    8   28 1
    32   11   29 1
    33   12   30 1
    34   13   31 1
    35   15   32 1
    36   16   33 1
    37   17   34 1
    38   19   35 1
    39   21   36 1
    40   21   37 1
@<TRIPOS>MOLECULE
ZINC00105872
 33 35 0 0 0
SMALL
NO_CHARGES


@<TRIPOS>ATOM
      1 C           8.514     4.074    -0.562  C    
      2 C           8.832     4.140     0.958  C    
      3 C           7.607     4.553     1.826  C    
      4 N           6.701     3.432     1.953  N    
      5 C           7.287     2.233     2.520  C    
      6 C           8.505     1.795     1.653  C    
      7 O           9.414     2.907     1.455  O    
      8 C           9.293     0.626     2.290  C    
      9 C           5.395     3.481     1.548  C    
     10 N           4.495     2.471     1.663  N    
     11 C           3.245     2.703     1.188  C    
     12 C           3.062     3.975     0.627  C    
     13 S           4.567     4.788     0.776  S    
     14 C           1.836     4.381     0.079  C    
     15 C           0.756     3.474     0.102  C    
     16 C           0.916     2.188     0.670  C    
     17 C           2.162     1.799     1.214  C    
     18 Cl          2.331     0.257     1.890  Cl   
     19 Cl         -0.739     3.923    -0.545  Cl   
     20 H           9.414     3.806    -1.118  H    
     21 H           8.168     5.049    -0.909  H    
     22 H           7.740     3.333    -0.767  H    
     23 H           9.606     4.906     1.084  H    
     24 H           7.966     4.824     2.825  H    
     25 H           7.156     5.451     1.403  H    
     26 H           7.625     2.457     3.538  H    
     27 H           6.584     1.399     2.588  H    
     28 H           8.141     1.451     0.679  H    
     29 H           9.685     0.914     3.267  H    
     30 H          10.130     0.345     1.647  H    
     31 H           8.647    -0.245     2.412  H    
     32 H           1.733     5.315    -0.327  H    
     33 H           0.124     1.538     0.689  H    
@<TRIPOS>BOND
     1    1    2 1
     2    2    7 1
     3    2    3 1
     4    3    4 1
     5    4    5 1
     6    4    9 1
     7    5    6 1
     8    6    7 1
     9    6    8 1
    10    9   13 1
    11    9   10 2
    12   10   11 1
    13   11   17 ar
    14   11   12 ar
    15   12   13 1
    16   12   14 ar
    17   14   15 ar
    18   15   16 ar
    19   15   19 1
    20   16   17 ar
    21   17   18 1
    22    1   20 1
    23    1   21 1
    24    1   22 1
    25    2   23 1
    26    3   24 1
    27    3   25 1
    28    5   26 1
    29    5   27 1
    30    6   28 1
    31    8   29 1
    32    8   30 1
    33    8   31 1
    34   14   32 1
    35   16   33 1
@<TRIPOS>MOLECULE
ZINC00120016
 31 33 0 0 0
SMALL
NO_CHARGES


@<TRIPOS>ATOM
      1 C          -0.351    -3.767    -0.703  C    
      2 N           0.712    -4.616    -1.193  N    
      3 C           0.429    -5.894    -1.620  C    
      4 C           1.440    -6.718    -2.092  C    
      5 C           2.735    -6.242    -2.129  C    
      6 O           3.595    -7.004    -2.553  O    
      7 N           3.003    -4.983    -1.707  N    
      8 C           1.998    -4.190    -1.248  C    
      9 O           2.248    -3.049    -0.866  O    
     10 C           4.385    -4.530    -1.767  C    
     11 N           0.885    -7.885    -2.433  N    
     12 C          -0.438    -7.817    -2.189  C    
     13 N          -0.719    -6.592    -1.689  N    
     14 C          -1.381    -8.850    -2.417  C    
     15 C          -2.755    -8.665    -2.122  C    
     16 C          -3.692    -9.694    -2.348  C    
     17 C          -3.274   -10.928    -2.875  C    
     18 C          -1.914   -11.130    -3.174  C    
     19 C          -0.978   -10.101    -2.947  C    
     20 H          -0.137    -3.473     0.328  H    
     21 H          -1.335    -4.240    -0.717  H    
     22 H          -0.408    -2.863    -1.316  H    
     23 H           5.011    -5.187    -1.158  H    
     24 H           4.548    -3.508    -1.415  H    
     25 H           4.740    -4.578    -2.800  H    
     26 H           1.355    -8.658    -2.797  H    
     27 H          -3.094    -7.779    -1.737  H    
     28 H          -4.679    -9.544    -2.130  H    
     29 H          -3.953   -11.677    -3.040  H    
     30 H          -1.605   -12.028    -3.557  H    
     31 H           0.003   -10.286    -3.177  H    
@<TRIPOS>BOND
     1    1    2 1
     2    2    8 1
     3    2    3 1
     4    3   13 1
     5    3    4 2
     6    4    5 1
     7    4   11 1
     8    5    6 2
     9    5    7 1
    10    7    8 1
    11    7   10 1
    12    8    9 2
    13   11   12 1
    14   12   13 2
    15   12   14 1
    16   14   19 ar
    17   14   15 ar
    18   15   16 ar
    19   16   17 ar
    20   17   18 ar
    21   18   19 ar
    22    1   20 1
    23    1   21 1
    24    1   22 1
    25   10   23 1
    26   10   24 1
    27   10   25 1
    28   11   26 1
    29   15   27 1
    30   16   28 1
    31   17   29 1
    32   18   30 1
    33   19   31 1
@<TRIPOS>MOLECULE
ZINC00121034
 30 32 0 0 0
SMALL
NO_CHARGES


@<TRIPOS>ATOM
      1 C           8.247    -6.331     2.643  C    
      2 C           6.984    -5.600     2.339  C    
      3 N           6.237    -6.097     1.321  N    
      4 C           5.082    -5.513     0.896  C    
      5 C           4.642    -4.323     1.531  C    
      6 C           3.452    -3.701     1.071  C    
      7 C           2.728    -4.244    -0.005  C    
      8 C           3.169    -5.430    -0.620  C    
      9 C           4.342    -6.071    -0.172  C    
     10 Cl          4.838    -7.496    -0.943  Cl   
     11 Cl          1.320    -3.471    -0.545  Cl   
     12 C           5.419    -3.832     2.593  C    
     13 O           5.027    -2.820     3.172  O    
     14 N           6.553    -4.458     2.989  N    
     15 C           7.291    -3.952     4.042  C    
     16 C           8.001    -2.735     3.911  C    
     17 C           8.742    -2.220     4.992  C    
     18 C           8.784    -2.917     6.213  C    
     19 C           8.081    -4.125     6.356  C    
     20 C           7.335    -4.635     5.279  C    
     21 H           9.095    -5.650     2.529  H    
     22 H           8.392    -7.184     1.979  H    
     23 H           8.225    -6.708     3.667  H    
     24 H           3.117    -2.840     1.508  H    
     25 H           2.634    -5.830    -1.394  H    
     26 H           7.977    -2.217     3.029  H    
     27 H           9.252    -1.341     4.889  H    
     28 H           9.314    -2.540     6.999  H    
     29 H           8.109    -4.632     7.241  H    
     30 H           6.828    -5.516     5.397  H    
@<TRIPOS>BOND
     1    1    2 1
     2    2   14 1
     3    2    3 2
     4    3    4 1
     5    4    9 ar
     6    4    5 ar
     7    5    6 ar
     8    5   12 1
     9    6    7 ar
    10    7    8 ar
    11    7   11 1
    12    8    9 ar
    13    9   10 1
    14   12   13 2
    15   12   14 1
    16   14   15 1
    17   15   20 ar
    18   15   16 ar
    19   16   17 ar
    20   17   18 ar
    21   18   19 ar
    22   19   20 ar
    23    1   21 1
    24    1   22 1
    25    1   23 1
    26    6   24 1
    27    8   25 1
    28   16   26 1
    29   17   27 1
    30   18   28 1
    31   19   29 1
    32   20   30 1
@<TRIPOS>MOLECULE
ZINC00139453
 15 15 0 0 0
SMALL
NO_CHARGES


@<TRIPOS>ATOM
      1 C           3.340    -0.708     2.355  C    
      2 C           2.463    -1.362     1.474  C    
      3 C           2.015    -2.665     1.800  C    
      4 C           2.465    -3.292     2.993  C    
      5 C           3.367    -2.592     3.844  C    
      6 N           3.747    -1.337     3.481  N    
      7 C           3.906    -3.075     5.033  C    
      8 O           4.204    -2.303     5.934  O    
      9 N           4.213    -4.339     5.230  N    
     10 Cl          1.851    -4.824     3.420  Cl   
     11 Cl          0.933    -3.461     0.751  Cl   
     12 Cl          1.994    -0.539     0.065  Cl   
     13 H           3.680     0.234     2.161  H    
     14 H           4.619    -4.610     6.068  H    
     15 H           4.069    -4.995     4.529  H    
@<TRIPOS>BOND
     1    1    6 ar
     2    1    2 ar
     3    2    3 ar
     4    2   12 1
     5    3    4 ar
     6    3   11 1
     7    4    5 ar
     8    4   10 1
     9    5    6 ar
    10    5    7 1
    11    7    8 2
    12    7    9 1
    13    1   13 1
    14    9   14 1
    15    9   15 1
@<TRIPOS>MOLECULE
ZINC00139895
 28 30 0 0 0
SMALL
NO_CHARGES


@<TRIPOS>ATOM
      1 C           3.529    -2.887     4.078  C    
      2 N           3.000    -1.669     3.909  N    
      3 C           3.804    -1.039     3.041  C    
      4 N           3.740     0.222     2.509  N    
      5 C           4.712     0.577     1.576  C    
      6 C           5.783    -0.248     1.338  C    
      7 C           5.788    -1.515     1.902  C    
      8 O           6.673    -2.330     1.665  O    
      9 N           4.808    -1.880     2.720  N    
     10 N           4.644    -3.005     3.341  N    
     11 C           6.920     0.138     0.478  C    
     12 C           6.963     1.624     0.048  C    
     13 C           5.551     2.079    -0.353  C    
     14 C           4.576     1.845     0.828  C    
     15 C           2.699     1.116     3.011  C    
     16 C           3.162     1.883     4.049  C    
     17 N           3.554     2.520     4.920  N    
     18 H           3.144    -3.618     4.680  H    
     19 H           7.862    -0.065     0.995  H    
     20 H           6.894    -0.486    -0.420  H    
     21 H           7.324     2.243     0.876  H    
     22 H           7.649     1.749    -0.794  H    
     23 H           5.558     3.137    -0.626  H    
     24 H           5.220     1.508    -1.226  H    
     25 H           3.580     1.897     0.386  H    
     26 H           4.678     2.673     1.534  H    
     27 H           2.315     1.789     2.243  H    
     28 H           1.824     0.570     3.367  H    
@<TRIPOS>BOND
     1    1   10 2
     2    1    2 1
     3    2    3 2
     4    3    9 1
     5    3    4 1
     6    4    5 1
     7    4   15 1
     8    5   14 1
     9    5    6 2
    10    6    7 1
    11    6   11 1
    12    7    8 2
    13    7    9 1
    14    9   10 1
    15   11   12 1
    16   12   13 1
    17   13   14 1
    18   15   16 1
    19   16   17 3
    20    1   18 1
    21   11   19 1
    22   11   20 1
    23   12   21 1
    24   12   22 1
    25   13   23 1
    26   13   24 1
    27   14   25 1
    28   14   26 1
    29   15   27 1
    30   15   28 1
@<TRIPOS>MOLECULE
ZINC00142711
 33 35 0 0 0
SMALL
NO_CHARGES


@<TRIPOS>ATOM
      1 C           3.641    -5.638     4.797  C    
      2 C           4.768    -5.518     3.737  C    
      3 C           5.823    -6.647     3.882  C    
      4 C           4.210    -5.442     2.346  C    
      5 C           3.512    -6.535     1.774  C    
      6 C           2.995    -6.464     0.469  C    
      7 C           3.154    -5.294    -0.294  C    
      8 C           3.840    -4.175     0.253  C    
      9 C           4.361    -4.269     1.568  C    
     10 C           3.961    -3.031    -0.556  C    
     11 O           4.538    -2.038    -0.142  O    
     12 N           3.439    -3.029    -1.794  N    
     13 C           2.793    -4.107    -2.290  C    
     14 N           2.646    -5.234    -1.556  N    
     15 C           2.294    -3.922    -3.649  C    
     16 C           2.735    -2.481    -3.986  C    
     17 C           3.477    -1.956    -2.732  C    
     18 H           3.108    -6.585     4.703  H    
     19 H           2.928    -4.819     4.679  H    
     20 H           4.065    -5.577     5.802  H    
     21 H           5.296    -4.587     3.966  H    
     22 H           6.293    -6.596     4.866  H    
     23 H           6.603    -6.532     3.126  H    
     24 H           5.368    -7.633     3.770  H    
     25 H           3.375    -7.397     2.306  H    
     26 H           2.501    -7.272     0.078  H    
     27 H           4.853    -3.469     1.965  H    
     28 H           2.750    -4.650    -4.323  H    
     29 H           1.207    -4.024    -3.671  H    
     30 H           3.398    -2.476    -4.855  H    
     31 H           1.867    -1.856    -4.209  H    
     32 H           2.972    -1.075    -2.326  H    
     33 H           4.511    -1.698    -2.976  H    
@<TRIPOS>BOND
     1    1    2 1
     2    2    3 1
     3    2    4 1
     4    4    9 ar
     5    4    5 ar
     6    5    6 ar
     7    6    7 ar
     8    7   14 1
     9    7    8 ar
    10    8    9 ar
    11    8   10 1
    12   10   11 2
    13   10   12 1
    14   12   17 1
    15   12   13 1
    16   13   14 2
    17   13   15 1
    18   15   16 1
    19   16   17 1
    20    1   18 1
    21    1   19 1
    22    1   20 1
    23    2   21 1
    24    3   22 1
    25    3   23 1
    26    3   24 1
    27    5   25 1
    28    6   26 1
    29    9   27 1
    30   15   28 1
    31   15   29 1
    32   16   30 1
    33   16   31 1
    34   17   32 1
    35   17   33 1
@<TRIPOS>MOLECULE
ZINC00262372
 26 27 0 0 0
SMALL
NO_CHARGES


@<TRIPOS>ATOM
      1 C          10.490     1.426     1.535  C    
      2 C           9.188     1.614     2.214  C    
      3 C           9.045     2.506     3.309  C    
      4 C           7.801     2.674     3.949  C    
      5 C           6.688     1.944     3.489  C    
      6 C           6.823     1.064     2.417  C    
      7 C           8.059     0.887     1.766  C    
      8 N           5.619     0.517     2.200  N    
      9 C           4.750     1.020     3.105  C    
     10 N           5.405     1.903     3.907  N    
     11 C           4.905     2.682     5.005  C    
     12 C           3.332     0.604     3.134  C    
     13 O           5.328    -0.363     1.276  O    
     14 H          10.796     0.382     1.609  H    
     15 H          11.276     2.043     1.974  H    
     16 H          10.395     1.694     0.481  H    
     17 H           9.848     3.043     3.649  H    
     18 H           7.711     3.320     4.736  H    
     19 H           8.136     0.237     0.980  H    
     20 H           5.445     2.417     5.917  H    
     21 H           3.844     2.531     5.195  H    
     22 H           5.056     3.745     4.802  H    
     23 H           2.869     0.836     2.174  H    
     24 H           2.762     1.100     3.916  H    
     25 H           3.277    -0.472     3.301  H    
     26 H           6.164    -0.532     0.795  H    
@<TRIPOS>BOND
     1    1    2 1
     2    2    7 ar
     3    2    3 ar
     4    3    4 ar
     5    4    5 ar
     6    5   10 1
     7    5    6 ar
     8    6    7 ar
     9    6    8 1
    10    8    9 2
    11    8   13 1
    12    9   10 1
    13    9   12 1
    14   10   11 1
    15    1   14 1
    16    1   15 1
    17    1   16 1
    18    3   17 1
    19    4   18 1
    20    7   19 1
    21   11   20 1
    22   11   21 1
    23   11   22 1
    24   12   23 1
    25   12   24 1
    26   12   25 1
    27   13   26 1
@<TRIPOS>MOLECULE
ZINC00143623
 39 42 0 0 0
SMALL
NO_CHARGES


@<TRIPOS>ATOM
      1 C           6.745    -0.326     4.233  C    
      2 C           5.584     0.437     3.709  C    
      3 C           4.957     0.005     2.516  C    
      4 C           3.854     0.693     1.980  C    
      5 C           3.350     1.862     2.595  C    
      6 C           3.976     2.282     3.794  C    
      7 C           5.077     1.594     4.367  C    
      8 C           5.671     2.103     5.631  C    
      9 N           2.250     2.519     2.074  N    
     10 C           1.932     2.707     0.762  C    
     11 C           0.629     3.223     0.653  C    
     12 C           0.259     3.552     1.948  C    
     13 C           1.248     3.064     2.799  C    
     14 N           1.079     3.171     4.138  N    
     15 C          -0.013     3.767     4.678  C    
     16 C          -0.157     3.874     6.072  C    
     17 C          -1.304     4.487     6.611  C    
     18 C          -2.304     4.989     5.754  C    
     19 C          -2.157     4.889     4.356  C    
     20 C          -1.009     4.284     3.806  C    
     21 N          -0.844     4.156     2.464  N    
     22 C           0.045     3.651    -0.428  C    
     23 N          -0.515     3.964    -1.383  N    
     24 N           2.732     2.431    -0.292  N    
     25 H           7.617     0.323     4.289  H    
     26 H           7.008    -1.176     3.603  H    
     27 H           6.517    -0.709     5.226  H    
     28 H           5.286    -0.814     2.024  H    
     29 H           3.416     0.315     1.156  H    
     30 H           3.640     3.111     4.249  H    
     31 H           5.617     1.339     6.406  H    
     32 H           5.161     2.989     6.013  H    
     33 H           6.714     2.372     5.466  H    
     34 H           0.553     3.517     6.693  H    
     35 H          -1.412     4.564     7.612  H    
     36 H          -3.127     5.423     6.145  H    
     37 H          -2.880     5.246     3.755  H    
     38 H           2.440     2.597    -1.193  H    
     39 H           3.609     2.065    -0.145  H    
@<TRIPOS>BOND
     1    1    2 1
     2    2    7 ar
     3    2    3 ar
     4    3    4 ar
     5    4    5 ar
     6    5    6 ar
     7    5    9 1
     8    6    7 ar
     9    7    8 1
    10    9   13 1
    11    9   10 1
    12   10   11 2
    13   10   24 1
    14   11   12 1
    15   11   22 1
    16   12   21 ar
    17   12   13 ar
    18   13   14 ar
    19   14   15 ar
    20   15   20 ar
    21   15   16 ar
    22   16   17 ar
    23   17   18 ar
    24   18   19 ar
    25   19   20 ar
    26   20   21 ar
    27   22   23 3
    28    1   25 1
    29    1   26 1
    30    1   27 1
    31    3   28 1
    32    4   29 1
    33    6   30 1
    34    8   31 1
    35    8   32 1
    36    8   33 1
    37   16   34 1
    38   17   35 1
    39   18   36 1
    40   19   37 1
    41   24   38 1
    42   24   39 1
@<TRIPOS>MOLECULE
ZINC00154833
 26 28 0 0 0
SMALL
NO_CHARGES


@<TRIPOS>ATOM
      1 C           7.369    -7.565     0.414  C    
      2 C           6.788    -8.772     0.832  C    
      3 C           5.413    -8.828     1.113  C    
      4 C           4.612    -7.676     0.974  C    
      5 C           5.184    -6.447     0.552  C    
      6 C           6.574    -6.412     0.275  C    
      7 C           4.400    -5.269     0.405  C    
      8 N           4.860    -4.061     0.008  N    
      9 C           3.820    -3.218    -0.008  C    
     10 C           3.744    -1.856    -0.341  C    
     11 C           2.489    -1.208    -0.264  C    
     12 C           1.339    -1.928     0.142  C    
     13 C           1.432    -3.297     0.472  C    
     14 C           2.687    -3.922     0.390  C    
     15 O           3.061    -5.192     0.643  O    
     16 N           2.399     0.097    -0.576  N    
     17 F           3.340    -7.800     1.246  F    
     18 H           8.372    -7.524     0.212  H    
     19 H           7.365    -9.610     0.929  H    
     20 H           4.996    -9.712     1.420  H    
     21 H           7.027    -5.548    -0.034  H    
     22 H           4.585    -1.350    -0.630  H    
     23 H           0.432    -1.460     0.200  H    
     24 H           0.609    -3.825     0.765  H    
     25 H           1.545     0.552    -0.524  H    
     26 H           3.194     0.580    -0.851  H    
@<TRIPOS>BOND
     1    1    6 ar
     2    1    2 ar
     3    2    3 ar
     4    3    4 ar
     5    4    5 ar
     6    4   17 1
     7    5    6 ar
     8    5    7 1
     9    7   15 1
    10    7    8 2
    11    8    9 1
    12    9   14 ar
    13    9   10 ar
    14   10   11 ar
    15   11   12 ar
    16   11   16 1
    17   12   13 ar
    18   13   14 ar
    19   14   15 1
    20    1   18 1
    21    2   19 1
    22    3   20 1
    23    6   21 1
    24   10   22 1
    25   12   23 1
    26   13   24 1
    27   16   25 1
    28   16   26 1
@<TRIPOS>MOLECULE
ZINC00187755
 29 31 0 0 0
SMALL
NO_CHARGES


@<TRIPOS>ATOM
      1 C         -10.394     9.078     1.527  C    
      2 O          -9.214     8.701     2.266  O    
      3 C          -8.514     7.558     1.943  C    
      4 C          -8.684     6.783     0.769  C    
      5 C          -7.878     5.657     0.530  C    
      6 C          -6.900     5.283     1.468  C    
      7 C          -6.710     6.027     2.660  C    
      8 C          -7.523     7.168     2.872  C    
      9 C          -5.716     5.576     3.556  C    
     10 C          -4.944     4.513     3.270  C    
     11 C          -5.126     3.801     2.092  C    
     12 O          -4.366     2.731     1.771  O    
     13 O          -6.099     4.196     1.222  O    
     14 S          -3.696     4.155     4.370  S    
     15 C          -4.447     5.249     5.599  C    
     16 C          -5.392     6.201     4.821  C    
     17 C          -5.144     4.427     6.724  C    
     18 F          -5.652     5.266     7.689  F    
     19 F          -6.178     3.658     6.244  F    
     20 F          -4.246     3.594     7.345  F    
     21 H         -10.145     9.313     0.487  H    
     22 H         -10.822     9.966     1.987  H    
     23 H         -11.143     8.278     1.550  H    
     24 H          -9.385     7.037     0.068  H    
     25 H          -8.000     5.113    -0.328  H    
     26 H          -7.397     7.739     3.710  H    
     27 H          -3.644     5.834     6.056  H    
     28 H          -4.896     7.156     4.626  H    
     29 H          -6.297     6.398     5.398  H    
@<TRIPOS>BOND
     1    1    2 1
     2    2    3 1
     3    3    8 ar
     4    3    4 ar
     5    4    5 ar
     6    5    6 ar
     7    6   13 1
     8    6    7 ar
     9    7    8 ar
    10    7    9 1
    11    9   16 1
    12    9   10 2
    13   10   11 1
    14   10   14 1
    15   11   12 2
    16   11   13 1
    17   14   15 1
    18   15   16 1
    19   15   17 1
    20   17   18 1
    21   17   19 1
    22   17   20 1
    23    1   21 1
    24    1   22 1
    25    1   23 1
    26    4   24 1
    27    5   25 1
    28    8   26 1
    29   15   27 1
    30   16   28 1
    31   16   29 1
@<TRIPOS>MOLECULE
ZINC00195402
 27 29 0 0 0
SMALL
NO_CHARGES


@<TRIPOS>ATOM
      1 C          -2.330     3.000    -2.443  C    
      2 C          -1.356     2.039    -2.783  C    
      3 C          -1.065     0.983    -1.893  C    
      4 C          -1.758     0.904    -0.672  C    
      5 C          -2.717     1.854    -0.324  C    
      6 C          -3.016     2.912    -1.213  C    
      7 C          -3.273     1.575     0.893  C    
      8 O          -4.269     2.175     1.278  O    
      9 C          -2.775     0.445     1.467  C    
     10 C          -3.156    -0.149     2.617  C    
     11 C          -4.007     0.355     3.594  C    
     12 C          -5.023    -0.478     4.123  C    
     13 C          -5.885    -0.009     5.132  C    
     14 C          -5.725     1.289     5.645  C    
     15 C          -4.697     2.117     5.155  C    
     16 C          -3.841     1.650     4.140  C    
     17 Br         -4.464     3.818     5.860  Br   
     18 S          -1.568    -0.332     0.520  S    
     19 H          -2.545     3.763    -3.090  H    
     20 H          -0.862     2.105    -3.676  H    
     21 H          -0.362     0.284    -2.133  H    
     22 H          -3.722     3.612    -0.974  H    
     23 H          -2.821    -1.073     2.784  H    
     24 H          -5.156    -1.427     3.764  H    
     25 H          -6.626    -0.615     5.493  H    
     26 H          -6.346     1.625     6.384  H    
     27 H          -3.084     2.256     3.815  H    
@<TRIPOS>BOND
     1    1    6 ar
     2    1    2 ar
     3    2    3 ar
     4    3    4 ar
     5    4   18 1
     6    4    5 ar
     7    5    6 ar
     8    5    7 1
     9    7    8 2
    10    7    9 1
    11    9   10 2
    12    9   18 1
    13   10   11 1
    14   11   16 ar
    15   11   12 ar
    16   12   13 ar
    17   13   14 ar
    18   14   15 ar
    19   15   16 ar
    20   15   17 1
    21    1   19 1
    22    2   20 1
    23    3   21 1
    24    6   22 1
    25   10   23 1
    26   12   24 1
    27   13   25 1
    28   14   26 1
    29   16   27 1
@<TRIPOS>MOLECULE
ZINC00199598
 35 38 0 0 0
SMALL
NO_CHARGES


@<TRIPOS>ATOM
      1 C          -4.916     6.961    -2.762  C    
      2 C          -5.550     5.807    -3.266  C    
      3 C          -5.609     4.649    -2.469  C    
      4 C          -5.027     4.648    -1.199  C    
      5 C          -4.376     5.785    -0.695  C    
      6 C          -4.318     6.971    -1.473  C    
      7 C          -3.674     8.133    -0.978  C    
      8 O          -3.650     9.290    -1.680  O    
      9 C          -5.203     3.372    -0.673  C    
     10 C          -5.908     2.657    -1.634  C    
     11 N          -6.110     3.425    -2.726  N    
     12 C          -6.623     2.918    -3.971  C    
     13 C          -7.007     1.407    -3.911  C    
     14 C          -6.201     1.206    -1.564  C    
     15 C          -5.271     0.432    -0.564  C    
     16 C          -4.156     1.281     0.125  C    
     17 C          -4.638     2.707     0.517  C    
     18 O          -3.052     8.147     0.225  O    
     19 N          -6.156     0.660    -2.947  N    
     20 H          -4.889     7.791    -3.355  H    
     21 H          -5.961     5.817    -4.201  H    
     22 H          -3.955     5.745     0.237  H    
     23 H          -7.497     3.503    -4.266  H    
     24 H          -5.852     3.050    -4.734  H    
     25 H          -8.054     1.307    -3.612  H    
     26 H          -6.899     0.959    -4.899  H    
     27 H          -7.233     1.113    -1.210  H    
     28 H          -5.894     0.004     0.226  H    
     29 H          -4.797    -0.412    -1.072  H    
     30 H          -3.800     0.761     1.018  H    
     31 H          -3.308     1.373    -0.561  H    
     32 H          -3.802     3.283     0.919  H    
     33 H          -5.413     2.637     1.284  H    
     34 H          -6.465    -0.315    -2.925  H    
     35 H          -5.189     0.687    -3.277  H    
@<TRIPOS>BOND
     1    1    6 ar
     2    1    2 ar
     3    2    3 ar
     4    3   11 1
     5    3    4 ar
     6    4    5 ar
     7    4    9 1
     8    5    6 ar
     9    6    7 1
    10    7    8 2
    11    7   18 1
    12    9   17 1
    13    9   10 2
    14   10   14 1
    15   10   11 1
    16   11   12 1
    17   12   13 1
    18   13   19 1
    19   14   15 1
    20   14   19 1
    21   15   16 1
    22   16   17 1
    23    1   20 1
    24    2   21 1
    25    5   22 1
    26   12   23 1
    27   12   24 1
    28   13   25 1
    29   13   26 1
    30   14   27 1
    31   15   28 1
    32   15   29 1
    33   16   30 1
    34   16   31 1
    35   17   32 1
    36   17   33 1
    37   19   34 1
    38   19   35 1
@<TRIPOS>MOLECULE
ZINC00287825
 26 27 0 0 0
SMALL
NO_CHARGES


@<TRIPOS>ATOM
      1 C          -1.612     2.546     2.863  C    
      2 C          -0.196     2.324     3.262  C    
      3 C           0.742     1.968     2.266  C    
      4 C           2.091     1.748     2.585  C    
      5 C           2.560     1.876     3.909  C    
      6 C           1.631     2.235     4.923  C    
      7 C           0.257     2.457     4.607  C    
      8 C          -0.593     2.802     5.671  C    
      9 C          -0.159     2.932     6.950  C    
     10 C           1.183     2.710     7.201  C    
     11 O           1.679     2.811     8.318  O    
     12 N           2.021     2.380     6.229  N    
     13 C          -1.024     3.262     7.970  C    
     14 O          -2.186     3.611     7.790  O    
     15 C           4.005     1.620     4.139  C    
     16 H          -2.256     1.845     3.395  H    
     17 H          -1.777     2.403     1.792  H    
     18 H          -1.906     3.566     3.112  H    
     19 H           0.453     1.862     1.287  H    
     20 H           2.739     1.489     1.829  H    
     21 H          -1.557     2.952     5.479  H    
     22 H           2.950     2.240     6.458  H    
     23 H          -0.716     3.241     8.918  H    
     24 H           4.248     0.602     3.826  H    
     25 H           4.305     1.732     5.178  H    
     26 H           4.597     2.315     3.540  H    
@<TRIPOS>BOND
     1    1    2 1
     2    2    7 ar
     3    2    3 ar
     4    3    4 ar
     5    4    5 ar
     6    5    6 ar
     7    5   15 1
     8    6   12 1
     9    6    7 ar
    10    7    8 1
    11    8    9 2
    12    9   10 1
    13    9   13 1
    14   10   11 2
    15   10   12 1
    16   13   14 2
    17    1   16 1
    18    1   17 1
    19    1   18 1
    20    3   19 1
    21    4   20 1
    22    8   21 1
    23   12   22 1
    24   13   23 1
    25   15   24 1
    26   15   25 1
    27   15   26 1
@<TRIPOS>MOLECULE
ZINC00336279
 22 23 0 0 0
SMALL
NO_CHARGES


@<TRIPOS>ATOM
      1 C           2.191    -7.718    -2.510  C    
      2 C           2.319    -7.365    -1.117  C    
      3 C           1.805    -6.466    -0.276  C    
      4 C           2.452    -7.064     0.873  C    
      5 C           2.955    -7.990    -0.128  C    
      6 O           4.119    -8.358    -0.225  O    
      7 Cl          3.645    -6.026     1.659  Cl   
      8 C           0.958    -5.365    -0.376  C    
      9 C           0.786    -4.669    -1.597  C    
     10 C          -0.082    -3.566    -1.688  C    
     11 C          -0.780    -3.123    -0.552  C    
     12 C          -0.599    -3.781     0.675  C    
     13 C           0.264    -4.888     0.764  C    
     14 H           3.142    -7.554    -3.019  H    
     15 H           1.416    -7.129    -3.004  H    
     16 H           1.919    -8.770    -2.598  H    
     17 H           1.751    -7.538     1.570  H    
     18 H           1.318    -4.929    -2.430  H    
     19 H          -0.197    -3.078    -2.578  H    
     20 H          -1.410    -2.321    -0.618  H    
     21 H          -1.103    -3.460     1.505  H    
     22 H           0.369    -5.349     1.672  H    
@<TRIPOS>BOND
     1    1    2 1
     2    2    5 1
     3    2    3 2
     4    3    4 1
     5    3    8 1
     6    4    5 1
     7    4    7 1
     8    5    6 2
     9    8   13 ar
    10    8    9 ar
    11    9   10 ar
    12   10   11 ar
    13   11   12 ar
    14   12   13 ar
    15    1   14 1
    16    1   15 1
    17    1   16 1
    18    4   17 1
    19    9   18 1
    20   10   19 1
    21   11   20 1
    22   12   21 1
    23   13   22 1
@<TRIPOS>MOLECULE
ZINC00349486
 21 22 0 0 0
SMALL
NO_CHARGES


@<TRIPOS>ATOM
      1 C          -0.399    -5.137     1.567  C    
      2 C           0.591    -4.712     0.562  C    
      3 C           1.872    -5.344     0.430  C    
      4 C           2.350    -6.439     1.204  C    
      5 C           3.629    -6.997     1.003  C    
      6 C           4.475    -6.486    -0.002  C    
      7 C           4.033    -5.409    -0.788  C    
      8 C           2.755    -4.857    -0.576  C    
      9 O           2.368    -3.809    -1.357  O    
     10 C           1.157    -3.214    -1.223  C    
     11 O           0.890    -2.184    -2.062  O    
     12 C           0.263    -3.667    -0.254  C    
     13 Cl         -1.204    -2.854    -0.179  Cl   
     14 O           5.712    -6.987    -0.245  O    
     15 Cl          4.123    -8.290     1.986  Cl   
     16 H          -0.627    -4.304     2.235  H    
     17 H          -0.106    -5.966     2.202  H    
     18 H          -1.319    -5.443     1.067  H    
     19 H           1.784    -6.853     1.941  H    
     20 H           4.639    -5.030    -1.520  H    
     21 H           5.843    -7.718     0.392  H    
@<TRIPOS>BOND
     1    1    2 1
     2    2   12 2
     3    2    3 1
     4    3    8 ar
     5    3    4 ar
     6    4    5 ar
     7    5    6 ar
     8    5   15 1
     9    6    7 ar
    10    6   14 1
    11    7    8 ar
    12    8    9 1
    13    9   10 1
    14   10   11 2
    15   10   12 1
    16   12   13 1
    17    1   16 1
    18    1   17 1
    19    1   18 1
    20    4   19 1
    21    7   20 1
    22   14   21 1
@<TRIPOS>MOLECULE
ZINC00372039
 42 44 0 0 0
SMALL
NO_CHARGES


@<TRIPOS>ATOM
      1 C           2.522    -1.905    -4.373  C    
      2 C           1.659    -2.633    -3.419  C    
      3 C           0.513    -2.222    -2.720  C    
      4 C           0.149    -3.346    -1.976  C    
      5 N           1.030    -4.331    -2.236  N    
      6 N           1.916    -3.911    -3.083  N    
      7 C           1.007    -5.641    -1.684  C    
      8 C          -0.198    -0.887    -2.760  C    
      9 C          -0.112    -0.123    -1.392  C    
     10 C           1.375     0.117    -0.965  C    
     11 C           1.423     0.711     0.451  C    
     12 C           0.677    -0.232     1.424  C    
     13 C          -0.576    -0.781     0.912  C    
     14 C          -1.003    -0.740    -0.382  C    
     15 C          -2.249    -1.250    -0.789  C    
     16 C          -2.642    -1.261    -2.104  C    
     17 C          -1.706    -0.938    -3.215  C    
     18 C          -1.834    -1.800    -4.294  C    
     19 N          -1.939    -2.514    -5.189  N    
     20 C          -2.092     0.285    -3.733  C    
     21 N          -2.414     1.301    -4.161  N    
     22 N          -3.874    -1.559    -2.453  N    
     23 C          -3.177    -1.446     0.091  C    
     24 N          -3.984    -1.453     0.915  N    
     25 H           3.543    -1.877    -3.988  H    
     26 H           2.200    -0.882    -4.537  H    
     27 H           2.514    -2.421    -5.334  H    
     28 H          -0.652    -3.426    -1.352  H    
     29 H           1.097    -5.580    -0.598  H    
     30 H           1.837    -6.234    -2.073  H    
     31 H           0.069    -6.132    -1.951  H    
     32 H           0.328    -0.274    -3.489  H    
     33 H          -0.523     0.889    -1.540  H    
     34 H           1.936    -0.817    -0.964  H    
     35 H           1.864     0.803    -1.658  H    
     36 H           2.460     0.835     0.773  H    
     37 H           0.951     1.698     0.457  H    
     38 H           1.327    -1.073     1.672  H    
     39 H           0.479     0.309     2.352  H    
     40 H          -1.118    -1.237     1.595  H    
     41 H          -4.119    -1.545    -3.355  H    
     42 H          -4.492    -1.794    -1.798  H    
@<TRIPOS>BOND
     1    1    2 1
     2    2    6 2
     3    2    3 1
     4    3    4 2
     5    3    8 1
     6    4    5 1
     7    5    6 1
     8    5    7 1
     9    8   17 1
    10    8    9 1
    11    9   14 1
    12    9   10 1
    13   10   11 1
    14   11   12 1
    15   12   13 1
    16   13   14 2
    17   14   15 1
    18   15   16 2
    19   15   23 1
    20   16   17 1
    21   16   22 1
    22   17   18 1
    23   17   20 1
    24   18   19 3
    25   20   21 3
    26   23   24 3
    27    1   25 1
    28    1   26 1
    29    1   27 1
    30    4   28 1
    31    7   29 1
    32    7   30 1
    33    7   31 1
    34    8   32 1
    35    9   33 1
    36   10   34 1
    37   10   35 1
    38   11   36 1
    39   11   37 1
    40   12   38 1
    41   12   39 1
    42   13   40 1
    43   22   41 1
    44   22   42 1
@<TRIPOS>MOLECULE
ZINC00377720
 34 36 0 0 0
SMALL
NO_CHARGES


@<TRIPOS>ATOM
      1 C          -1.813   -10.529    -3.656  C    
      2 C          -1.137    -9.336    -3.104  C    
      3 C          -0.943    -9.167    -1.717  C    
      4 C          -0.309    -8.017    -1.210  C    
      5 C           0.142    -6.999    -2.081  C    
      6 C          -0.028    -7.182    -3.472  C    
      7 C          -0.666    -8.331    -3.974  C    
      8 C           0.775    -5.848    -1.556  C    
      9 C           0.708    -4.506    -1.942  C    
     10 C           1.538    -3.825    -1.063  C    
     11 N           2.057    -4.701    -0.192  N    
     12 N           1.604    -5.878    -0.495  N    
     13 O           1.730    -2.469    -1.094  O    
     14 C           1.221    -1.789    -2.152  C    
     15 C           0.344    -2.317    -3.048  C    
     16 C          -0.045    -3.745    -2.979  C    
     17 C          -1.574    -3.895    -2.729  C    
     18 C          -0.035    -1.648    -4.079  C    
     19 N          -0.314    -1.071    -5.033  N    
     20 N           1.629    -0.565    -2.206  N    
     21 H          -2.708   -10.225    -4.198  H    
     22 H          -2.117   -11.228    -2.873  H    
     23 H          -1.147   -11.055    -4.339  H    
     24 H          -1.272    -9.875    -1.060  H    
     25 H          -0.197    -7.919    -0.197  H    
     26 H           0.329    -6.495    -4.138  H    
     27 H          -0.779    -8.431    -4.985  H    
     28 H           1.840    -6.687    -0.019  H    
     29 H           0.200    -4.204    -3.941  H    
     30 H          -1.864    -4.950    -2.711  H    
     31 H          -2.148    -3.410    -3.522  H    
     32 H          -1.850    -3.443    -1.775  H    
     33 H           1.363    -0.008    -2.911  H    
     34 H           2.186    -0.226    -1.536  H    
@<TRIPOS>BOND
     1    1    2 1
     2    2    7 ar
     3    2    3 ar
     4    3    4 ar
     5    4    5 ar
     6    5    6 ar
     7    5    8 1
     8    6    7 ar
     9    8   12 1
    10    8    9 2
    11    9   16 1
    12    9   10 1
    13   10   11 2
    14   10   13 1
    15   11   12 1
    16   13   14 1
    17   14   15 2
    18   14   20 1
    19   15   16 1
    20   15   18 1
    21   16   17 1
    22   18   19 3
    23    1   21 1
    24    1   22 1
    25    1   23 1
    26    3   24 1
    27    4   25 1
    28    6   26 1
    29    7   27 1
    30   12   28 1
    31   16   29 1
    32   17   30 1
    33   17   31 1
    34   17   32 1
    35   20   33 1
    36   20   34 1
@<TRIPOS>MOLECULE
ZINC00404018
 13 13 0 0 0
SMALL
NO_CHARGES


@<TRIPOS>ATOM
      1 C           5.351    -9.031    -1.611  C    
      2 C           4.445   -10.112    -1.704  C    
      3 C           3.469   -10.286    -0.703  C    
      4 C           3.396    -9.395     0.384  C    
      5 C           4.300    -8.320     0.472  C    
      6 C           5.278    -8.138    -0.522  C    
      7 Cl          6.366    -6.846    -0.407  Cl   
      8 Cl          2.222    -9.616     1.583  Cl   
      9 S           4.470   -11.260    -3.019  S    
     10 H           6.062    -8.892    -2.329  H    
     11 H           2.809   -11.065    -0.761  H    
     12 H           4.249    -7.673     1.260  H    
     13 H           5.529   -10.726    -3.684  H    
@<TRIPOS>BOND
     1    1    6 ar
     2    1    2 ar
     3    2    3 ar
     4    2    9 1
     5    3    4 ar
     6    4    5 ar
     7    4    8 1
     8    5    6 ar
     9    6    7 1
    10    1   10 1
    11    3   11 1
    12    5   12 1
    13    9   13 1
@<TRIPOS>MOLECULE
ZINC00404329
 13 13 0 0 0
SMALL
NO_CHARGES


@<TRIPOS>ATOM
      1 C           5.760    -9.172     0.882  C    
      2 C           4.545    -9.237     1.588  C    
      3 C           3.410    -8.550     1.112  C    
      4 C           3.500    -7.798    -0.078  C    
      5 C           4.716    -7.728    -0.792  C    
      6 C           5.843    -8.419    -0.303  C    
      7 Cl          4.833    -6.828    -2.221  Cl   
      8 O           2.236    -8.607     1.788  O    
      9 H           6.582    -9.671     1.229  H    
     10 H           4.494    -9.787     2.448  H    
     11 H           2.672    -7.302    -0.420  H    
     12 H           6.731    -8.382    -0.803  H    
     13 H           2.399    -9.176     2.569  H    
@<TRIPOS>BOND
     1    1    6 ar
     2    1    2 ar
     3    2    3 ar
     4    3    4 ar
     5    3    8 1
     6    4    5 ar
     7    5    6 ar
     8    5    7 1
     9    1    9 1
    10    2   10 1
    11    4   11 1
    12    6   12 1
    13    8   13 1
@<TRIPOS>MOLECULE
ZINC00409808
 25 27 0 0 0
SMALL
NO_CHARGES


@<TRIPOS>ATOM
      1 C          -3.535     8.272     2.248  C    
      2 N          -3.489     6.892     2.660  N    
      3 C          -4.462     5.924     2.417  C    
      4 C          -5.728     5.964     1.729  C    
      5 C          -6.266     7.113     1.088  C    
      6 C          -7.517     7.103     0.444  C    
      7 C          -8.282     5.932     0.410  C    
      8 C          -7.791     4.769     1.015  C    
      9 C          -6.533     4.772     1.664  C    
     10 C          -6.090     3.567     2.252  C    
     11 C          -4.862     3.512     2.914  C    
     12 C          -4.095     4.678     2.978  C    
     13 S          -2.576     4.796     3.749  S    
     14 C          -2.401     6.452     3.363  C    
     15 N          -1.304     7.128     3.751  N    
     16 H          -2.675     8.866     2.567  H    
     17 H          -4.415     8.755     2.676  H    
     18 H          -3.557     8.328     1.158  H    
     19 H          -5.775     7.994     1.058  H    
     20 H          -7.871     7.952    -0.003  H    
     21 H          -9.191     5.925    -0.059  H    
     22 H          -8.362     3.920     0.974  H    
     23 H          -6.657     2.716     2.205  H    
     24 H          -4.536     2.641     3.342  H    
     25 H          -0.605     6.679     4.252  H    
@<TRIPOS>BOND
     1    1    2 1
     2    2   14 1
     3    2    3 1
     4    3   12 ar
     5    3    4 ar
     6    4    9 ar
     7    4    5 ar
     8    5    6 ar
     9    6    7 ar
    10    7    8 ar
    11    8    9 ar
    12    9   10 ar
    13   10   11 ar
    14   11   12 ar
    15   12   13 1
    16   13   14 1
    17   14   15 2
    18    1   16 1
    19    1   17 1
    20    1   18 1
    21    5   19 1
    22    6   20 1
    23    7   21 1
    24    8   22 1
    25   10   23 1
    26   11   24 1
    27   15   25 1
@<TRIPOS>MOLECULE
ZINC00425226
 37 39 0 0 0
SMALL
NO_CHARGES


@<TRIPOS>ATOM
      1 C           6.762    -6.314    -0.091  C    
      2 C           5.600    -7.205     0.429  C    
      3 C           5.935    -8.717     0.203  C    
      4 C           4.826    -9.656     0.745  C    
      5 C           4.509    -9.374     2.236  C    
      6 C           4.158    -7.880     2.468  C    
      7 C           5.274    -6.922     1.943  C    
      8 N           4.990    -5.514     2.284  N    
      9 C           3.968    -4.839     1.695  C    
     10 O           3.194    -5.399     0.928  O    
     11 C           3.736    -3.475     1.930  C    
     12 C           2.684    -2.725     1.350  C    
     13 C           2.539    -1.354     1.637  C    
     14 C           3.438    -0.713     2.511  C    
     15 C           4.483    -1.445     3.097  C    
     16 C           4.631    -2.819     2.812  C    
     17 N           5.614    -3.527     3.405  N    
     18 C           5.776    -4.834     3.196  C    
     19 S           6.900    -5.517     4.285  S    
     20 H           6.504    -5.258     0.001  H    
     21 H           6.952    -6.524    -1.147  H    
     22 H           7.680    -6.504     0.470  H    
     23 H           4.724    -6.980    -0.185  H    
     24 H           6.057    -8.911    -0.868  H    
     25 H           6.880    -8.966     0.695  H    
     26 H           3.917    -9.527     0.151  H    
     27 H           5.148   -10.697     0.637  H    
     28 H           3.665    -9.995     2.550  H    
     29 H           5.374    -9.646     2.847  H    
     30 H           3.209    -7.672     1.969  H    
     31 H           4.015    -7.713     3.540  H    
     32 H           6.176    -7.255     2.462  H    
     33 H           2.015    -3.164     0.712  H    
     34 H           1.778    -0.823     1.214  H    
     35 H           3.332     0.284     2.714  H    
     36 H           5.131    -0.980     3.738  H    
     37 H           6.198    -3.074     4.036  H    
@<TRIPOS>BOND
     1    1    2 1
     2    2    7 1
     3    2    3 1
     4    3    4 1
     5    4    5 1
     6    5    6 1
     7    6    7 1
     8    7    8 1
     9    8   18 1
    10    8    9 1
    11    9   10 2
    12    9   11 1
    13   11   16 ar
    14   11   12 ar
    15   12   13 ar
    16   13   14 ar
    17   14   15 ar
    18   15   16 ar
    19   16   17 1
    20   17   18 1
    21   18   19 2
    22    1   20 1
    23    1   21 1
    24    1   22 1
    25    2   23 1
    26    3   24 1
    27    3   25 1
    28    4   26 1
    29    4   27 1
    30    5   28 1
    31    5   29 1
    32    6   30 1
    33    6   31 1
    34    7   32 1
    35   12   33 1
    36   13   34 1
    37   14   35 1
    38   15   36 1
    39   17   37 1
@<TRIPOS>MOLECULE
ZINC00462814
 36 38 0 0 0
SMALL
NO_CHARGES


@<TRIPOS>ATOM
      1 C           1.977     3.805    -2.936  C    
      2 C           3.220     4.299    -2.334  C    
      3 C           4.122     3.531    -1.658  C    
      4 C           5.314     4.184    -1.081  C    
      5 C           4.954     5.507    -0.331  C    
      6 C           3.928     6.388    -1.107  C    
      7 C           3.474     5.746    -2.456  C    
      8 C           2.854     6.521    -0.151  C    
      9 O           1.863     7.208    -0.370  O    
     10 N           3.089     5.873     0.975  N    
     11 C           4.271     5.284     0.922  C    
     12 O           4.767     4.628     1.830  O    
     13 C           2.225     5.807     2.036  C    
     14 C           1.070     5.004     1.908  C    
     15 C           0.156     4.894     2.968  C    
     16 C           0.387     5.587     4.168  C    
     17 C           1.531     6.398     4.317  C    
     18 C           2.459     6.513     3.247  C    
     19 Cl          3.826     7.517     3.396  Cl   
     20 Cl          1.732     7.210     5.793  Cl   
     21 C           3.931     2.095    -1.442  C    
     22 H           1.127     4.305    -2.471  H    
     23 H           1.816     2.731    -2.840  H    
     24 H           1.977     4.040    -4.002  H    
     25 H           5.869     3.525    -0.406  H    
     26 H           5.991     4.429    -1.902  H    
     27 H           5.865     6.079    -0.138  H    
     28 H           4.353     7.377    -1.302  H    
     29 H           4.269     5.882    -3.192  H    
     30 H           2.600     6.285    -2.838  H    
     31 H           0.893     4.489     1.039  H    
     32 H          -0.677     4.309     2.868  H    
     33 H          -0.288     5.500     4.935  H    
     34 H           3.011     1.923    -0.882  H    
     35 H           4.748     1.636    -0.883  H    
     36 H           3.864     1.580    -2.402  H    
@<TRIPOS>BOND
     1    1    2 1
     2    2    7 1
     3    2    3 2
     4    3    4 1
     5    3   21 1
     6    4    5 1
     7    5   11 1
     8    5    6 1
     9    6    7 1
    10    6    8 1
    11    8    9 2
    12    8   10 1
    13   10   11 1
    14   10   13 1
    15   11   12 2
    16   13   18 ar
    17   13   14 ar
    18   14   15 ar
    19   15   16 ar
    20   16   17 ar
    21   17   18 ar
    22   17   20 1
    23   18   19 1
    24    1   22 1
    25    1   23 1
    26    1   24 1
    27    4   25 1
    28    4   26 1
    29    5   27 1
    30    6   28 1
    31    7   29 1
    32    7   30 1
    33   14   31 1
    34   15   32 1
    35   16   33 1
    36   21   34 1
    37   21   35 1
    38   21   36 1
@<TRIPOS>MOLECULE
ZINC00666002
 30 33 0 0 0
SMALL
NO_CHARGES


@<TRIPOS>ATOM
      1 C           2.492     1.718     4.104  C    
      2 C           3.158     2.663     3.292  C    
      3 C           2.804     2.819     1.935  C    
      4 C           1.782     2.009     1.408  C    
      5 C           1.122     1.072     2.211  C    
      6 C           1.463     0.915     3.568  C    
      7 N           0.211     0.424     1.462  N    
      8 C           0.312     0.961     0.230  C    
      9 N           1.241     1.908     0.182  N    
     10 C           1.387     2.438    -1.011  C    
     11 O           2.283     3.239    -1.241  O    
     12 C           0.545     1.890    -1.933  C    
     13 C           0.479     2.144    -3.255  C    
     14 C           1.124     3.159    -3.950  C    
     15 C           1.849     2.845    -5.124  C    
     16 C           2.495     3.856    -5.857  C    
     17 C           2.406     5.200    -5.446  C    
     18 C           1.660     5.534    -4.295  C    
     19 C           1.023     4.517    -3.559  C    
     20 Br          1.495     7.304    -3.736  Br   
     21 F           3.009     6.125    -6.141  F    
     22 S          -0.466     0.657    -1.279  S    
     23 H           2.761     1.615     5.085  H    
     24 H           3.902     3.241     3.688  H    
     25 H           3.283     3.503     1.349  H    
     26 H           0.981     0.225     4.149  H    
     27 H          -0.064     1.523    -3.811  H    
     28 H           1.928     1.876    -5.445  H    
     29 H           3.030     3.607    -6.692  H    
     30 H           0.466     4.777    -2.743  H    
@<TRIPOS>BOND
     1    1    6 ar
     2    1    2 ar
     3    2    3 ar
     4    3    4 ar
     5    4    9 1
     6    4    5 ar
     7    5    6 ar
     8    5    7 1
     9    7    8 2
    10    8   22 1
    11    8    9 1
    12    9   10 1
    13   10   11 2
    14   10   12 1
    15   12   13 2
    16   12   22 1
    17   13   14 1
    18   14   19 ar
    19   14   15 ar
    20   15   16 ar
    21   16   17 ar
    22   17   18 ar
    23   17   21 1
    24   18   19 ar
    25   18   20 1
    26    1   23 1
    27    2   24 1
    28    3   25 1
    29    6   26 1
    30   13   27 1
    31   15   28 1
    32   16   29 1
    33   19   30 1
@<TRIPOS>MOLECULE
ZINC00705845
 33 36 0 0 0
SMALL
NO_CHARGES


@<TRIPOS>ATOM
      1 C           5.569    -0.195     3.179  C    
      2 C           4.870    -1.291     2.633  C    
      3 C           3.472    -1.226     2.471  C    
      4 C           2.781    -0.061     2.858  C    
      5 C           3.465     1.052     3.413  C    
      6 C           4.872     0.971     3.566  C    
      7 C           2.707     2.184     3.780  C    
      8 C           1.365     2.246     3.578  C    
      9 C           0.702     1.116     3.063  C    
     10 O          -0.641     1.066     2.898  O    
     11 O           1.423     0.012     2.716  O    
     12 C           0.631     3.478     3.923  C    
     13 C           1.414     4.519     4.598  C    
     14 C           2.722     4.297     4.846  C    
     15 O           3.365     3.238     4.325  O    
     16 N           3.470     5.098     5.527  N    
     17 C           0.802     5.537     5.118  C    
     18 N           0.167     6.169     5.843  N    
     19 C           0.006     4.057     2.704  C    
     20 C           0.674     4.526     1.561  C    
     21 C          -0.170     5.083     0.591  C    
     22 C          -1.521     5.075     0.936  C    
     23 S          -1.674     4.355     2.488  S    
     24 Br          0.438     5.778    -1.012  Br   
     25 H           6.579    -0.245     3.295  H    
     26 H           5.373    -2.131     2.353  H    
     27 H           2.960    -2.017     2.076  H    
     28 H           5.402     1.754     3.960  H    
     29 H          -0.164     3.174     4.616  H    
     30 H           4.371     4.911     5.643  H    
     31 H           3.115     5.877     5.886  H    
     32 H           1.686     4.482     1.448  H    
     33 H          -2.280     5.434     0.373  H    
@<TRIPOS>BOND
     1    1    6 ar
     2    1    2 ar
     3    2    3 ar
     4    3    4 ar
     5    4   11 1
     6    4    5 ar
     7    5    6 ar
     8    5    7 1
     9    7   15 1
    10    7    8 2
    11    8    9 1
    12    8   12 1
    13    9   10 2
    14    9   11 1
    15   12   13 1
    16   12   19 1
    17   13   14 2
    18   13   17 1
    19   14   15 1
    20   14   16 1
    21   17   18 3
    22   19   23 1
    23   19   20 2
    24   20   21 1
    25   21   22 2
    26   21   24 1
    27   22   23 1
    28    1   25 1
    29    2   26 1
    30    3   27 1
    31    6   28 1
    32   12   29 1
    33   16   30 1
    34   16   31 1
    35   20   32 1
    36   22   33 1
@<TRIPOS>MOLECULE
ZINC00873707
 19 20 0 0 0
SMALL
NO_CHARGES


@<TRIPOS>ATOM
      1 C           3.910    -9.464    -1.644  C    
      2 C           3.307    -8.151    -1.404  C    
      3 N           2.268    -7.886    -0.580  N    
      4 C           1.887    -6.584    -0.525  C    
      5 C           0.836    -6.072     0.260  C    
      6 C           0.532    -4.684     0.232  C    
      7 C           1.309    -3.832    -0.602  C    
      8 C           2.362    -4.341    -1.389  C    
      9 C           2.632    -5.717    -1.335  C    
     10 S           3.809    -6.677    -2.133  S    
     11 C          -0.526    -4.157     1.018  C    
     12 O          -1.279    -4.945     1.818  O    
     13 O          -0.840    -2.844     1.014  O    
     14 H           3.832    -9.719    -2.701  H    
     15 H           3.407   -10.236    -1.060  H    
     16 H           4.963    -9.444    -1.366  H    
     17 H           0.300    -6.716     0.846  H    
     18 H           1.116    -2.827    -0.645  H    
     19 H           2.915    -3.724    -1.985  H    
@<TRIPOS>BOND
     1    1    2 1
     2    2   10 1
     3    2    3 2
     4    3    4 1
     5    4    9 ar
     6    4    5 ar
     7    5    6 ar
     8    6    7 ar
     9    6   11 1
    10    7    8 ar
    11    8    9 ar
    12    9   10 1
    13   11   12 2
    14   11   13 1
    15    1   14 1
    16    1   15 1
    17    1   16 1
    18    5   17 1
    19    7   18 1
    20    8   19 1
@<TRIPOS>MOLECULE
ZINC00895194
 16 16 0 0 0
SMALL
NO_CHARGES


@<TRIPOS>ATOM
      1 C           4.916    -6.370    -2.097  C    
      2 C           3.361    -6.478    -2.252  C    
      3 N           2.762    -7.206    -1.167  N    
      4 C           3.427    -8.134    -0.492  C    
      5 O           2.825    -8.834     0.308  O    
      6 N           4.728    -8.326    -0.671  N    
      7 C           5.468    -7.559    -1.462  C    
      8 O           6.670    -7.779    -1.510  O    
      9 C           2.659    -5.186    -2.417  C    
     10 O           3.312    -4.001    -2.458  O    
     11 O           1.329    -5.172    -2.659  O    
     12 H           5.179    -5.516    -1.465  H    
     13 H           5.370    -6.222    -3.081  H    
     14 H           3.164    -7.055    -3.160  H    
     15 H           1.804    -7.135    -1.031  H    
     16 H           5.164    -9.045    -0.188  H    
@<TRIPOS>BOND
     1    1    7 1
     2    1    2 1
     3    2    3 1
     4    2    9 1
     5    3    4 1
     6    4    5 2
     7    4    6 1
     8    6    7 1
     9    7    8 2
    10    9   10 2
    11    9   11 1
    12    1   12 1
    13    1   13 1
    14    2   14 1
    15    3   15 1
    16    6   16 1
@<TRIPOS>MOLECULE
ZINC00977855
 38 40 0 0 0
SMALL
NO_CHARGES


@<TRIPOS>ATOM
      1 C           2.568    -1.400    -9.015  C    
      2 C           3.222    -0.120    -8.457  C    
      3 C           4.551    -0.404    -7.868  C    
      4 C           4.778    -0.905    -6.588  C    
      5 C           3.897    -1.201    -5.533  C    
      6 C           4.404    -1.703    -4.315  C    
      7 C           5.798    -1.929    -4.188  C    
      8 C           6.674    -1.648    -5.261  C    
      9 C           6.150    -1.125    -6.461  C    
     10 N           6.755    -0.778    -7.615  N    
     11 C           5.810    -0.332    -8.481  C    
     12 C           6.137     0.085    -9.870  C    
     13 C           8.546    -0.317    -9.292  C    
     14 C           8.157    -0.938    -7.926  C    
     15 C           6.102     1.625   -10.049  C    
     16 C           3.477    -1.967    -3.195  C    
     17 N           7.448    -0.481   -10.277  N    
     18 H           3.193    -1.837    -9.800  H    
     19 H           1.595    -1.154    -9.443  H    
     20 H           2.422    -2.139    -8.222  H    
     21 H           3.307     0.603    -9.266  H    
     22 H           2.568     0.317    -7.699  H    
     23 H           2.891    -1.046    -5.644  H    
     24 H           6.188    -2.294    -3.316  H    
     25 H           7.675    -1.815    -5.159  H    
     26 H           5.398    -0.346   -10.549  H    
     27 H           8.772     0.743    -9.167  H    
     28 H           9.442    -0.808    -9.674  H    
     29 H           8.767    -0.475    -7.147  H    
     30 H           8.377    -2.009    -7.940  H    
     31 H           5.095     2.014    -9.904  H    
     32 H           6.423     1.885   -11.061  H    
     33 H           6.768     2.115    -9.335  H    
     34 H           2.964    -1.041    -2.919  H    
     35 H           3.992    -2.347    -2.310  H    
     36 H           2.731    -2.707    -3.501  H    
     37 H           7.318    -1.484   -10.438  H    
     38 H           7.730    -0.054   -11.163  H    
@<TRIPOS>BOND
     1    1    2 1
     2    2    3 1
     3    3   11 2
     4    3    4 1
     5    4    9 ar
     6    4    5 ar
     7    5    6 ar
     8    6    7 ar
     9    6   16 1
    10    7    8 ar
    11    8    9 ar
    12    9   10 1
    13   10   14 1
    14   10   11 1
    15   11   12 1
    16   12   15 1
    17   12   17 1
    18   13   14 1
    19   13   17 1
    20    1   18 1
    21    1   19 1
    22    1   20 1
    23    2   21 1
    24    2   22 1
    25    5   23 1
    26    7   24 1
    27    8   25 1
    28   12   26 1
    29   13   27 1
    30   13   28 1
    31   14   29 1
    32   14   30 1
    33   15   31 1
    34   15   32 1
    35   15   33 1
    36   16   34 1
    37   16   35 1
    38   16   36 1
    39   17   37 1
    40   17   38 1
@<TRIPOS>MOLECULE
ZINC00982395
 20 21 0 0 0
SMALL
NO_CHARGES


@<TRIPOS>ATOM
      1 C          -1.403    -6.159    -1.882  C    
      2 C          -1.205    -6.777    -3.128  C    
      3 C          -0.005    -6.574    -3.833  C    
      4 C           0.999    -5.749    -3.293  C    
      5 C           0.812    -5.116    -2.038  C    
      6 C          -0.401    -5.334    -1.341  C    
      7 N           1.784    -4.315    -1.483  N    
      8 C           2.976    -4.767    -1.122  C    
      9 O           3.352    -5.925    -1.251  O    
     10 C           3.850    -3.802    -0.523  C    
     11 S           2.933    -2.253    -0.453  S    
     12 C           1.625    -3.019    -1.222  C    
     13 S           0.315    -2.043    -1.710  S    
     14 F           2.093    -5.562    -3.984  F    
     15 H          -2.275    -6.307    -1.371  H    
     16 H          -1.935    -7.375    -3.521  H    
     17 H           0.132    -7.023    -4.742  H    
     18 H          -0.561    -4.891    -0.433  H    
     19 H           4.126    -4.109     0.488  H    
     20 H           4.755    -3.667    -1.118  H    
@<TRIPOS>BOND
     1    1    6 ar
     2    1    2 ar
     3    2    3 ar
     4    3    4 ar
     5    4    5 ar
     6    4   14 1
     7    5    6 ar
     8    5    7 1
     9    7   12 1
    10    7    8 1
    11    8    9 2
    12    8   10 1
    13   10   11 1
    14   11   12 1
    15   12   13 2
    16    1   15 1
    17    2   16 1
    18    3   17 1
    19    6   18 1
    20   10   19 1
    21   10   20 1
@<TRIPOS>MOLECULE
ZINC01008930
 30 33 0 0 0
SMALL
NO_CHARGES


@<TRIPOS>ATOM
      1 C           2.904    -9.602    -8.558  C    
      2 C           3.131    -9.788    -7.108  C    
      3 C           4.367    -9.679    -6.419  C    
      4 C           5.675    -9.380    -6.864  C    
      5 C           6.649    -9.369    -5.842  C    
      6 C           7.990    -9.085    -6.154  C    
      7 N           8.306    -8.827    -7.449  N    
      8 C           7.370    -8.838    -8.433  C    
      9 N           6.072    -9.112    -8.136  N    
     10 Cl          9.212    -9.052    -4.990  Cl   
     11 S           5.885    -9.737    -4.344  S    
     12 C           4.321    -9.904    -5.030  C    
     13 N           3.180   -10.206    -4.376  N    
     14 C           1.996   -10.311    -5.036  C    
     15 N           2.015   -10.097    -6.384  N    
     16 C           0.791   -10.632    -4.335  C    
     17 C          -0.457   -10.746    -5.005  C    
     18 C          -1.638   -11.063    -4.304  C    
     19 C          -1.600   -11.273    -2.916  C    
     20 C          -0.380   -11.166    -2.230  C    
     21 C           0.799   -10.849    -2.934  C    
     22 H           2.492   -10.518    -8.985  H    
     23 H           3.810    -9.357    -9.103  H    
     24 H           2.188    -8.793    -8.716  H    
     25 H           7.645    -8.640    -9.397  H    
     26 H          -0.521   -10.600    -6.013  H    
     27 H          -2.530   -11.141    -4.804  H    
     28 H          -2.457   -11.504    -2.405  H    
     29 H          -0.350   -11.319    -1.217  H    
     30 H           1.668   -10.780    -2.402  H    
@<TRIPOS>BOND
     1    1    2 1
     2    2   15 ar
     3    2    3 ar
     4    3   12 ar
     5    3    4 1
     6    4    9 ar
     7    4    5 ar
     8    5    6 ar
     9    5   11 1
    10    6    7 ar
    11    6   10 1
    12    7    8 ar
    13    8    9 ar
    14   11   12 1
    15   12   13 ar
    16   13   14 ar
    17   14   15 ar
    18   14   16 1
    19   16   21 ar
    20   16   17 ar
    21   17   18 ar
    22   18   19 ar
    23   19   20 ar
    24   20   21 ar
    25    1   22 1
    26    1   23 1
    27    1   24 1
    28    8   25 1
    29   17   26 1
    30   18   27 1
    31   19   28 1
    32   20   29 1
    33   21   30 1
@<TRIPOS>MOLECULE
ZINC01099655
 28 31 0 0 0
SMALL
NO_CHARGES


@<TRIPOS>ATOM
      1 C          -2.158    -6.210    -3.296  C    
      2 C          -2.150    -4.982    -3.982  C    
      3 C          -0.932    -4.328    -4.238  C    
      4 C           0.300    -4.883    -3.818  C    
      5 C           0.270    -6.119    -3.129  C    
      6 C          -0.945    -6.778    -2.869  C    
      7 C           1.523    -4.221    -4.079  C    
      8 N           2.755    -4.653    -3.727  N    
      9 C           3.661    -3.761    -4.145  C    
     10 C           2.957    -2.745    -4.777  C    
     11 N           1.651    -3.043    -4.727  N    
     12 C           3.617    -1.668    -5.321  C    
     13 C           4.928    -1.545    -5.272  C    
     14 N           5.201    -0.450    -5.861  N    
     15 O           4.138     0.140    -6.286  O    
     16 N           3.179    -0.643    -5.933  N    
     17 C           5.836    -2.505    -4.654  C    
     18 C           5.138    -3.762    -4.012  C    
     19 H          -3.041    -6.686    -3.108  H    
     20 H          -3.033    -4.569    -4.292  H    
     21 H          -0.960    -3.437    -4.739  H    
     22 H           1.134    -6.559    -2.806  H    
     23 H          -0.949    -7.670    -2.370  H    
     24 H           2.954    -5.474    -3.250  H    
     25 H           6.542    -2.838    -5.418  H    
     26 H           6.406    -1.979    -3.884  H    
     27 H           5.380    -3.810    -2.948  H    
     28 H           5.518    -4.670    -4.484  H    
@<TRIPOS>BOND
     1    1    6 ar
     2    1    2 ar
     3    2    3 ar
     4    3    4 ar
     5    4    5 ar
     6    4    7 1
     7    5    6 ar
     8    7   11 2
     9    7    8 1
    10    8    9 1
    11    9   18 1
    12    9   10 2
    13   10   11 1
    14   10   12 1
    15   12   16 2
    16   12   13 1
    17   13   14 2
    18   13   17 1
    19   14   15 1
    20   15   16 1
    21   17   18 1
    22    1   19 1
    23    2   20 1
    24    3   21 1
    25    5   22 1
    26    6   23 1
    27    8   24 1
    28   17   25 1
    29   17   26 1
    30   18   27 1
    31   18   28 1
@<TRIPOS>MOLECULE
ZINC01220034
 33 35 0 0 0
SMALL
NO_CHARGES


@<TRIPOS>ATOM
      1 C           9.953     3.102    -5.984  C    
      2 C           9.201     1.976    -5.224  C    
      3 C           7.966     2.456    -4.622  C    
      4 O           7.929     2.668    -3.417  O    
      5 N           6.880     2.764    -5.315  N    
      6 C           6.643     2.603    -6.651  C    
      7 C           5.683     3.489    -7.190  C    
      8 C           5.337     3.445    -8.550  C    
      9 C           5.945     2.503    -9.394  C    
     10 C           6.878     1.599    -8.869  C    
     11 C           7.243     1.617    -7.493  C    
     12 C           8.159     0.659    -7.015  C    
     13 N           8.950     0.860    -6.018  N    
     14 C           8.196    -0.638    -7.523  C    
     15 C           7.025    -1.434    -7.443  C    
     16 C           7.012    -2.757    -7.918  C    
     17 C           8.172    -3.310    -8.488  C    
     18 C           9.343    -2.534    -8.583  C    
     19 C           9.365    -1.204    -8.107  C    
     20 Cl         10.802    -0.326    -8.314  Cl   
     21 Br          5.504     2.452   -11.201  Br   
     22 H          10.866     2.704    -6.428  H    
     23 H          10.229     3.897    -5.287  H    
     24 H           9.343     3.538    -6.778  H    
     25 H           9.876     1.630    -4.436  H    
     26 H           6.178     3.209    -4.808  H    
     27 H           5.235     4.192    -6.593  H    
     28 H           4.648     4.104    -8.923  H    
     29 H           7.301     0.925    -9.514  H    
     30 H           6.166    -1.062    -7.022  H    
     31 H           6.158    -3.322    -7.847  H    
     32 H           8.164    -4.271    -8.833  H    
     33 H          10.174    -2.948    -9.008  H    
@<TRIPOS>BOND
     1    1    2 1
     2    2   13 1
     3    2    3 1
     4    3    4 2
     5    3    5 1
     6    5    6 1
     7    6   11 ar
     8    6    7 ar
     9    7    8 ar
    10    8    9 ar
    11    9   10 ar
    12    9   21 1
    13   10   11 ar
    14   11   12 1
    15   12   13 2
    16   12   14 1
    17   14   19 ar
    18   14   15 ar
    19   15   16 ar
    20   16   17 ar
    21   17   18 ar
    22   18   19 ar
    23   19   20 1
    24    1   22 1
    25    1   23 1
    26    1   24 1
    27    2   25 1
    28    5   26 1
    29    7   27 1
    30    8   28 1
    31   10   29 1
    32   15   30 1
    33   16   31 1
    34   17   32 1
    35   18   33 1
@<TRIPOS>MOLECULE
ZINC00036221
 34 35 0 0 0
SMALL
NO_CHARGES


@<TRIPOS>ATOM
      1 C           5.613    -7.945    -0.214  C    
      2 C           4.524    -7.209     0.473  C    
      3 C           4.174    -5.902     0.063  C    
      4 C           3.138    -5.177     0.690  C    
      5 C           2.435    -5.766     1.779  C    
      6 C           2.786    -7.074     2.185  C    
      7 C           3.813    -7.793     1.547  C    
      8 Br          4.182    -9.511     2.169  Br   
      9 C           1.348    -5.058     2.509  C    
     10 S           2.808    -3.561     0.108  S    
     11 O           1.265    -3.494    -0.276  O    
     12 O           3.556    -3.219    -1.255  O    
     13 N           3.214    -2.383     1.255  N    
     14 C           4.609    -2.228     1.582  C    
     15 C           4.772    -1.609     2.992  C    
     16 O           3.963    -0.423     3.122  O    
     17 C           2.561    -0.671     2.897  C    
     18 C           2.321    -1.279     1.492  C    
     19 H           6.398    -8.196     0.502  H    
     20 H           6.068    -7.364    -1.020  H    
     21 H           5.218    -8.866    -0.647  H    
     22 H           4.692    -5.472    -0.707  H    
     23 H           2.292    -7.522     2.960  H    
     24 H           1.734    -4.141     2.954  H    
     25 H           0.918    -5.659     3.314  H    
     26 H           0.537    -4.811     1.824  H    
     27 H           5.138    -3.186     1.570  H    
     28 H           5.078    -1.572     0.843  H    
     29 H           4.492    -2.341     3.755  H    
     30 H           5.817    -1.338     3.152  H    
     31 H           2.174    -1.345     3.666  H    
     32 H           2.024     0.276     2.979  H    
     33 H           2.493    -0.514     0.730  H    
     34 H           1.274    -1.586     1.438  H    
@<TRIPOS>BOND
     1    1    2 1
     2    2    7 ar
     3    2    3 ar
     4    3    4 ar
     5    4    5 ar
     6    4   10 1
     7    5    6 ar
     8    5    9 1
     9    6    7 ar
    10    7    8 1
    11   10   11 2
    12   10   12 2
    13   10   13 1
    14   13   18 1
    15   13   14 1
    16   14   15 1
    17   15   16 1
    18   16   17 1
    19   17   18 1
    20    1   19 1
    21    1   20 1
    22    1   21 1
    23    3   22 1
    24    6   23 1
    25    9   24 1
    26    9   25 1
    27    9   26 1
    28   14   27 1
    29   14   28 1
    30   15   29 1
    31   15   30 1
    32   17   31 1
    33   17   32 1
    34   18   33 1
    35   18   34 1
@<TRIPOS>MOLECULE
ZINC00036434
 26 28 0 0 0
SMALL
NO_CHARGES


@<TRIPOS>ATOM
      1 C           7.182    -9.225     0.909  C    
      2 C           6.047    -8.375     0.530  C    
      3 N           5.042    -8.700    -0.310  N    
      4 N           4.215    -7.692    -0.408  N    
      5 C           4.699    -6.719     0.376  C    
      6 N           5.812    -7.128     0.950  N    
      7 N           6.266    -6.187     1.698  N    
      8 C           5.432    -5.125     1.607  C    
      9 N           4.430    -5.468     0.768  N    
     10 C           5.593    -3.884     2.292  C    
     11 C           6.432    -3.839     3.433  C    
     12 C           6.658    -2.661     4.193  C    
     13 C           6.004    -1.473     3.754  C    
     14 C           5.167    -1.498     2.622  C    
     15 C           4.954    -2.681     1.892  C    
     16 Cl          3.958    -2.538     0.524  Cl   
     17 Cl          6.167     0.042     4.502  Cl   
     18 N           7.475    -2.728     5.292  N    
     19 O           7.707    -1.798     6.016  O    
     20 O           8.061    -3.833     5.672  O    
     21 H           8.115    -8.734     0.627  H    
     22 H           7.122   -10.191     0.403  H    
     23 H           7.171    -9.387     1.987  H    
     24 H           7.079    -6.230     2.226  H    
     25 H           6.886    -4.705     3.733  H    
     26 H           4.709    -0.634     2.318  H    
@<TRIPOS>BOND
     1    1    2 1
     2    2    6 1
     3    2    3 2
     4    3    4 1
     5    4    5 2
     6    5    9 1
     7    5    6 1
     8    6    7 1
     9    7    8 1
    10    8    9 2
    11    8   10 1
    12   10   15 ar
    13   10   11 ar
    14   11   12 ar
    15   12   13 ar
    16   12   18 1
    17   13   14 ar
    18   13   17 1
    19   14   15 ar
    20   15   16 1
    21   18   19 2
    22   18   20 1
    23    1   21 1
    24    1   22 1
    25    1   23 1
    26    7   24 1
    27   11   25 1
    28   14   26 1
@<TRIPOS>MOLECULE
ZINC00038843
 25 25 0 0 0
SMALL
NO_CHARGES


@<TRIPOS>ATOM
      1 C           5.006    -8.736    -1.066  C    
      2 C           4.091    -7.641    -0.662  C    
      3 C           3.331    -6.982    -1.658  C    
      4 C           2.451    -5.932    -1.334  C    
      5 C           2.293    -5.511     0.003  C    
      6 C           3.057    -6.162     0.994  C    
      7 C           3.950    -7.218     0.692  C    
      8 C           4.715    -7.859     1.794  C    
      9 N           1.474    -4.500     0.441  N    
     10 C           0.538    -3.775    -0.163  C    
     11 O           0.227    -3.950    -1.335  O    
     12 C          -0.181    -2.747     0.574  C    
     13 F          -1.529    -3.022     0.574  F    
     14 F           0.209    -2.628     1.889  F    
     15 F           0.018    -1.528    -0.022  F    
     16 H           6.031    -8.485    -0.790  H    
     17 H           4.992    -8.928    -2.141  H    
     18 H           4.718    -9.660    -0.564  H    
     19 H           3.409    -7.257    -2.645  H    
     20 H           1.941    -5.483    -2.093  H    
     21 H           2.955    -5.863     1.968  H    
     22 H           4.474    -8.924     1.843  H    
     23 H           4.492    -7.427     2.773  H    
     24 H           5.787    -7.743     1.619  H    
     25 H           1.596    -4.283     1.377  H    
@<TRIPOS>BOND
     1    1    2 1
     2    2    7 ar
     3    2    3 ar
     4    3    4 ar
     5    4    5 ar
     6    5    6 ar
     7    5    9 1
     8    6    7 ar
     9    7    8 1
    10    9   10 1
    11   10   11 2
    12   10   12 1
    13   12   13 1
    14   12   14 1
    15   12   15 1
    16    1   16 1
    17    1   17 1
    18    1   18 1
    19    3   19 1
    20    4   20 1
    21    6   21 1
    22    8   22 1
    23    8   23 1
    24    8   24 1
    25    9   25 1
@<TRIPOS>MOLECULE
ZINC00047158
 42 45 0 0 0
SMALL
NO_CHARGES


@<TRIPOS>ATOM
      1 C           1.981    -2.891    -6.828  C    
      2 C           2.234    -3.797    -5.683  C    
      3 C           1.498    -4.993    -5.516  C    
      4 C           1.756    -5.836    -4.420  C    
      5 C           2.744    -5.494    -3.481  C    
      6 C           3.493    -4.300    -3.619  C    
      7 C           3.226    -3.463    -4.733  C    
      8 C           4.488    -3.952    -2.669  C    
      9 N           4.821    -4.678    -1.583  N    
     10 C           5.801    -3.994    -0.992  C    
     11 N           6.046    -2.888    -1.687  N    
     12 N           5.276    -2.858    -2.728  N    
     13 C           7.190    -2.168    -1.266  C    
     14 C           7.194    -0.617    -1.430  C    
     15 C           8.395     0.080    -0.667  C    
     16 C           8.570    -0.519     0.784  C    
     17 C           8.409    -1.969     0.845  C    
     18 O           9.279    -2.688     1.305  O    
     19 C           7.210    -2.525     0.248  C    
     20 S           6.823    -4.294     0.377  S    
     21 C           8.084     1.608    -0.548  C    
     22 C           9.739    -0.045    -1.461  C    
     23 O           8.296    -2.740    -1.971  O    
     24 H           1.682    -1.908    -6.459  H    
     25 H           1.191    -3.265    -7.480  H    
     26 H           2.891    -2.783    -7.421  H    
     27 H           0.772    -5.257    -6.185  H    
     28 H           1.222    -6.696    -4.304  H    
     29 H           2.909    -6.130    -2.693  H    
     30 H           3.758    -2.594    -4.860  H    
     31 H           7.212    -0.360    -2.494  H    
     32 H           6.245    -0.245    -1.028  H    
     33 H           9.534    -0.223     1.210  H    
     34 H           7.803    -0.101     1.440  H    
     35 H           6.366    -2.030     0.751  H    
     36 H           7.969     2.059    -1.536  H    
     37 H           8.889     2.131    -0.026  H    
     38 H           7.161     1.780     0.008  H    
     39 H          10.091    -1.074    -1.505  H    
     40 H          10.527     0.545    -0.986  H    
     41 H           9.620     0.321    -2.484  H    
     42 H           8.273    -3.699    -1.771  H    
@<TRIPOS>BOND
     1    1    2 1
     2    2    7 ar
     3    2    3 ar
     4    3    4 ar
     5    4    5 ar
     6    5    6 ar
     7    6    7 ar
     8    6    8 1
     9    8   12 2
    10    8    9 1
    11    9   10 2
    12   10   20 1
    13   10   11 1
    14   11   12 1
    15   11   13 1
    16   13   19 1
    17   13   14 1
    18   13   23 1
    19   14   15 1
    20   15   16 1
    21   15   21 1
    22   15   22 1
    23   16   17 1
    24   17   18 2
    25   17   19 1
    26   19   20 1
    27    1   24 1
    28    1   25 1
    29    1   26 1
    30    3   27 1
    31    4   28 1
    32    5   29 1
    33    7   30 1
    34   14   31 1
    35   14   32 1
    36   16   33 1
    37   16   34 1
    38   19   35 1
    39   21   36 1
    40   21   37 1
    41   21   38 1
    42   22   39 1
    43   22   40 1
    44   22   41 1
    45   23   42 1
@<TRIPOS>MOLECULE
ZINC00049243
 38 40 0 0 0
SMALL
NO_CHARGES


@<TRIPOS>ATOM
      1 C          -0.381     6.363    -2.357  C    
      2 C          -1.488     5.849    -1.544  C    
      3 C          -1.437     4.723    -0.773  C    
      4 C          -2.619     4.370     0.038  C    
      5 C          -3.174     5.620     0.795  C    
      6 C          -3.260     6.887    -0.110  C    
      7 C          -2.732     6.640    -1.560  C    
      8 C          -4.665     7.209    -0.044  C    
      9 O          -5.137     8.157    -0.660  O    
     10 N          -5.350     6.383     0.733  N    
     11 C          -4.538     5.470     1.240  C    
     12 O          -4.863     4.611     2.052  O    
     13 C          -6.706     6.471     0.979  C    
     14 C          -7.296     7.701     1.364  C    
     15 C          -8.675     7.793     1.603  C    
     16 C          -9.493     6.653     1.473  C    
     17 C          -8.941     5.404     1.099  C    
     18 C          -7.547     5.334     0.852  C    
     19 C          -9.765     4.251     0.983  C    
     20 O          -9.243     3.022     0.740  O    
     21 C          -0.254     3.863    -0.703  C    
     22 O         -11.104     4.313     1.162  O    
     23 H          -0.713     6.460    -3.394  H    
     24 H           0.509     5.734    -2.361  H    
     25 H          -0.085     7.347    -1.988  H    
     26 H          -3.383     3.979    -0.643  H    
     27 H          -2.407     3.588     0.772  H    
     28 H          -2.537     5.829     1.661  H    
     29 H          -2.689     7.707     0.342  H    
     30 H          -2.604     7.608    -2.056  H    
     31 H          -3.479     6.081    -2.136  H    
     32 H          -6.710     8.535     1.488  H    
     33 H          -9.085     8.688     1.882  H    
     34 H         -10.496     6.751     1.660  H    
     35 H          -7.123     4.448     0.562  H    
     36 H          -0.005     3.491    -1.700  H    
     37 H          -0.399     2.988    -0.065  H    
     38 H           0.592     4.425    -0.303  H    
@<TRIPOS>BOND
     1    1    2 1
     2    2    7 1
     3    2    3 2
     4    3    4 1
     5    3   21 1
     6    4    5 1
     7    5   11 1
     8    5    6 1
     9    6    7 1
    10    6    8 1
    11    8    9 2
    12    8   10 1
    13   10   11 1
    14   10   13 1
    15   11   12 2
    16   13   18 ar
    17   13   14 ar
    18   14   15 ar
    19   15   16 ar
    20   16   17 ar
    21   17   18 ar
    22   17   19 1
    23   19   20 2
    24   19   22 1
    25    1   23 1
    26    1   24 1
    27    1   25 1
    28    4   26 1
    29    4   27 1
    30    5   28 1
    31    6   29 1
    32    7   30 1
    33    7   31 1
    34   14   32 1
    35   15   33 1
    36   16   34 1
    37   18   35 1
    38   21   36 1
    39   21   37 1
    40   21   38 1
@<TRIPOS>MOLECULE
ZINC00052475
 34 35 0 0 0
SMALL
NO_CHARGES


@<TRIPOS>ATOM
      1 C           5.215    -7.183    -1.234  C    
      2 C           3.694    -7.452    -1.306  C    
      3 N           2.918    -6.441    -0.629  N    
      4 C           2.901    -6.295     0.708  C    
      5 O           3.536    -7.083     1.606  O    
      6 O           2.175    -5.229     1.074  O    
      7 C           1.636    -4.528    -0.050  C    
      8 C           2.060    -5.470    -1.257  C    
      9 C           0.892    -6.181    -2.012  C    
     10 O           2.817    -4.775    -2.254  O    
     11 C           0.097    -4.343     0.190  C    
     12 C          -0.234    -3.479     1.437  C    
     13 C           0.464    -2.097     1.383  C    
     14 C           1.991    -2.245     1.171  C    
     15 C           2.319    -3.116    -0.072  C    
     16 H           5.443    -6.204    -1.672  H    
     17 H           5.752    -7.951    -1.798  H    
     18 H           5.565    -7.202    -0.194  H    
     19 H           3.424    -7.504    -2.363  H    
     20 H           3.475    -8.434    -0.868  H    
     21 H           1.271    -6.776    -2.845  H    
     22 H           0.203    -5.443    -2.426  H    
     23 H           0.349    -6.854    -1.341  H    
     24 H           3.628    -4.467    -1.800  H    
     25 H          -0.348    -3.865    -0.686  H    
     26 H          -0.381    -5.314     0.333  H    
     27 H          -1.317    -3.330     1.498  H    
     28 H           0.082    -4.008     2.343  H    
     29 H           0.038    -1.505     0.566  H    
     30 H           0.281    -1.564     2.320  H    
     31 H           2.435    -1.252     1.046  H    
     32 H           2.437    -2.701     2.058  H    
     33 H           3.406    -3.229    -0.120  H    
     34 H           2.003    -2.579    -0.972  H    
@<TRIPOS>BOND
     1    1    2 1
     2    2    3 1
     3    3    8 1
     4    3    4 1
     5    4    5 2
     6    4    6 1
     7    6    7 1
     8    7   15 1
     9    7    8 1
    10    7   11 1
    11    8    9 1
    12    8   10 1
    13   11   12 1
    14   12   13 1
    15   13   14 1
    16   14   15 1
    17    1   16 1
    18    1   17 1
    19    1   18 1
    20    2   19 1
    21    2   20 1
    22    9   21 1
    23    9   22 1
    24    9   23 1
    25   10   24 1
    26   11   25 1
    27   11   26 1
    28   12   27 1
    29   12   28 1
    30   13   29 1
    31   13   30 1
    32   14   31 1
    33   14   32 1
    34   15   33 1
    35   15   34 1
@<TRIPOS>MOLECULE
ZINC00054877
 28 29 0 0 0
SMALL
NO_CHARGES


@<TRIPOS>ATOM
      1 C           6.688    -6.379    -0.515  C    
      2 C           5.405    -5.647    -0.384  C    
      3 C           5.215    -4.240    -0.531  C    
      4 C           3.881    -3.753    -0.502  C    
      5 C           2.785    -4.613    -0.282  C    
      6 C           1.451    -4.149    -0.236  C    
      7 C           0.373    -5.038     0.010  C    
      8 C           0.661    -6.408     0.190  C    
      9 C           1.983    -6.885     0.135  C    
     10 C           3.045    -5.990    -0.094  C    
     11 N           4.321    -6.441    -0.165  N    
     12 O          -0.967    -4.708     0.070  O    
     13 C          -1.406    -3.339     0.100  C    
     14 C           6.252    -3.321    -0.672  C    
     15 O           6.140    -2.341    -1.397  O    
     16 N           7.346    -3.385     0.058  N    
     17 H           6.972    -6.799     0.452  H    
     18 H           7.502    -5.754    -0.878  H    
     19 H           6.573    -7.196    -1.232  H    
     20 H           3.703    -2.751    -0.605  H    
     21 H           1.277    -3.154    -0.382  H    
     22 H          -0.099    -7.068     0.362  H    
     23 H           2.168    -7.881     0.259  H    
     24 H          -0.949    -2.799     0.934  H    
     25 H          -2.487    -3.331     0.228  H    
     26 H          -1.172    -2.840    -0.845  H    
     27 H           8.033    -2.710    -0.038  H    
     28 H           7.463    -4.105     0.695  H    
@<TRIPOS>BOND
     1    1    2 1
     2    2   11 ar
     3    2    3 ar
     4    3    4 ar
     5    3   14 1
     6    4    5 ar
     7    5   10 ar
     8    5    6 ar
     9    6    7 ar
    10    7    8 ar
    11    7   12 1
    12    8    9 ar
    13    9   10 ar
    14   10   11 ar
    15   12   13 1
    16   14   15 2
    17   14   16 1
    18    1   17 1
    19    1   18 1
    20    1   19 1
    21    4   20 1
    22    6   21 1
    23    8   22 1
    24    9   23 1
    25   13   24 1
    26   13   25 1
    27   13   26 1
    28   16   27 1
    29   16   28 1
@<TRIPOS>MOLECULE
ZINC00069369
 31 33 0 0 0
SMALL
NO_CHARGES


@<TRIPOS>ATOM
      1 C           2.388    -0.104     4.117  C    
      2 C           3.709     0.292     3.831  C    
      3 C           3.994     1.007     2.654  C    
      4 C           2.957     1.335     1.758  C    
      5 C           1.623     0.934     2.041  C    
      6 C           1.347     0.212     3.222  C    
      7 C           0.629     1.300     1.105  C    
      8 O          -0.668     0.948     1.253  O    
      9 O           0.983     2.016     0.004  O    
     10 C           2.272     2.412    -0.251  C    
     11 N           3.238     2.049     0.629  N    
     12 N           2.639     3.112    -1.346  N    
     13 C           1.848     3.601    -2.344  C    
     14 C           0.490     3.968    -2.197  C    
     15 C          -0.231     4.511    -3.277  C    
     16 C           0.378     4.721    -4.535  C    
     17 C           1.735     4.348    -4.680  C    
     18 C           2.460     3.813    -3.598  C    
     19 C          -0.395     5.357    -5.632  C    
     20 F          -0.804     6.612    -5.247  F    
     21 F           0.301     5.517    -6.807  F    
     22 F          -1.512     4.614    -5.931  F    
     23 H           2.182    -0.617     4.979  H    
     24 H           4.461     0.063     4.487  H    
     25 H           4.956     1.295     2.462  H    
     26 H           0.395    -0.083     3.446  H    
     27 H           3.595     3.241    -1.460  H    
     28 H           0.023     3.891    -1.296  H    
     29 H          -1.211     4.775    -3.127  H    
     30 H           2.220     4.476    -5.570  H    
     31 H           3.447     3.580    -3.736  H    
@<TRIPOS>BOND
     1    1    6 ar
     2    1    2 ar
     3    2    3 ar
     4    3    4 ar
     5    4   11 1
     6    4    5 ar
     7    5    6 ar
     8    5    7 1
     9    7    8 2
    10    7    9 1
    11    9   10 1
    12   10   11 2
    13   10   12 1
    14   12   13 1
    15   13   18 ar
    16   13   14 ar
    17   14   15 ar
    18   15   16 ar
    19   16   17 ar
    20   16   19 1
    21   17   18 ar
    22   19   20 1
    23   19   21 1
    24   19   22 1
    25    1   23 1
    26    2   24 1
    27    3   25 1
    28    6   26 1
    29   12   27 1
    30   14   28 1
    31   15   29 1
    32   17   30 1
    33   18   31 1
@<TRIPOS>MOLECULE
ZINC00079939
 30 32 0 0 0
SMALL
NO_CHARGES


@<TRIPOS>ATOM
      1 C           0.472     3.087     6.155  C    
      2 C           0.519     4.245     5.361  C    
      3 C           0.881     5.477     5.935  C    
      4 C           1.201     5.552     7.306  C    
      5 C           1.159     4.390     8.121  C    
      6 C           0.782     3.159     7.525  C    
      7 C           1.507     4.513     9.474  C    
      8 O           1.522     3.518    10.189  O    
      9 N           1.857     5.695     9.994  N    
     10 C           1.876     6.917     9.221  C    
     11 N           1.554     6.746     7.835  N    
     12 C           0.937     7.930     9.807  C    
     13 C          -0.444     7.611     9.862  C    
     14 C          -1.380     8.512    10.393  C    
     15 C          -0.954     9.758    10.886  C    
     16 C           0.412    10.091    10.857  C    
     17 C           1.358     9.188    10.329  C    
     18 Cl          2.979     9.697    10.350  Cl   
     19 Cl         -2.083    10.856    11.515  Cl   
     20 O           2.247     5.788    11.245  O    
     21 H           0.209     2.192     5.737  H    
     22 H           0.291     4.191     4.363  H    
     23 H           0.912     6.313     5.349  H    
     24 H           0.741     2.305     8.082  H    
     25 H           2.906     7.272     9.234  H    
     26 H           1.586     7.520     7.251  H    
     27 H          -0.779     6.716     9.508  H    
     28 H          -2.372     8.261    10.415  H    
     29 H           0.714    10.996    11.222  H    
     30 H           1.682     5.162    11.760  H    
@<TRIPOS>BOND
     1    1    6 ar
     2    1    2 ar
     3    2    3 ar
     4    3    4 ar
     5    4   11 1
     6    4    5 ar
     7    5    6 ar
     8    5    7 1
     9    7    8 2
    10    7    9 1
    11    9   10 1
    12    9   20 1
    13   10   11 1
    14   10   12 1
    15   12   17 ar
    16   12   13 ar
    17   13   14 ar
    18   14   15 ar
    19   15   16 ar
    20   15   19 1
    21   16   17 ar
    22   17   18 1
    23    1   21 1
    24    2   22 1
    25    3   23 1
    26    6   24 1
    27   10   25 1
    28   11   26 1
    29   13   27 1
    30   14   28 1
    31   16   29 1
    32   20   30 1
@<TRIPOS>MOLECULE
ZINC00083912
 36 38 0 0 0
SMALL
NO_CHARGES


@<TRIPOS>ATOM
      1 C           4.467    -8.564     1.792  C    
      2 C           3.897    -7.332     2.164  C    
      3 C           4.582    -6.129     1.904  C    
      4 C           5.844    -6.152     1.264  C    
      5 C           6.410    -7.395     0.899  C    
      6 C           5.723    -8.595     1.158  C    
      7 Br          6.483   -10.222     0.670  Br   
      8 C           6.595    -4.890     1.036  C    
      9 C           5.819    -3.553     1.317  C    
     10 C           4.534    -3.723     2.043  C    
     11 O           3.800    -2.644     2.399  O    
     12 O           4.000    -4.951     2.269  O    
     13 C           6.670    -2.526     1.947  C    
     14 O           6.922    -1.572     1.217  O    
     15 N           7.169    -2.540     3.205  N    
     16 C           6.954    -3.618     4.162  C    
     17 C           6.246    -3.094     5.440  C    
     18 C           7.018    -1.901     6.058  C    
     19 C           7.312    -0.816     4.990  C    
     20 C           7.974    -1.438     3.731  C    
     21 H           3.968    -9.435     1.985  H    
     22 H           2.985    -7.314     2.623  H    
     23 H           7.328    -7.427     0.447  H    
     24 H           7.501    -4.951     1.646  H    
     25 H           6.928    -4.878    -0.006  H    
     26 H           5.494    -3.192     0.331  H    
     27 H           6.363    -4.446     3.781  H    
     28 H           7.925    -4.040     4.442  H    
     29 H           5.229    -2.777     5.186  H    
     30 H           6.174    -3.901     6.176  H    
     31 H           6.429    -1.465     6.871  H    
     32 H           7.963    -2.259     6.479  H    
     33 H           6.375    -0.329     4.701  H    
     34 H           7.977    -0.057     5.414  H    
     35 H           8.962    -1.825     3.998  H    
     36 H           8.147    -0.626     3.016  H    
@<TRIPOS>BOND
     1    1    6 ar
     2    1    2 ar
     3    2    3 ar
     4    3   12 1
     5    3    4 ar
     6    4    5 ar
     7    4    8 1
     8    5    6 ar
     9    6    7 1
    10    8    9 1
    11    9   10 1
    12    9   13 1
    13   10   11 2
    14   10   12 1
    15   13   14 2
    16   13   15 1
    17   15   20 1
    18   15   16 1
    19   16   17 1
    20   17   18 1
    21   18   19 1
    22   19   20 1
    23    1   21 1
    24    2   22 1
    25    5   23 1
    26    8   24 1
    27    8   25 1
    28    9   26 1
    29   16   27 1
    30   16   28 1
    31   17   29 1
    32   17   30 1
    33   18   31 1
    34   18   32 1
    35   19   33 1
    36   19   34 1
    37   20   35 1
    38   20   36 1
@<TRIPOS>MOLECULE
ZINC00086088
 29 30 0 0 0
SMALL
NO_CHARGES


@<TRIPOS>ATOM
      1 C           4.094    -9.118    -0.429  C    
      2 C           2.788    -8.445    -0.909  C    
      3 C           1.576    -9.398    -0.758  C    
      4 O           2.601    -7.250    -0.116  O    
      5 C           1.854    -6.153    -0.684  C    
      6 C           2.776    -5.278    -1.575  C    
      7 C           2.049    -3.999    -2.052  C    
      8 C           1.624    -3.091    -0.869  C    
      9 C           1.109    -3.814     0.406  C    
     10 C           1.271    -5.347     0.514  C    
     11 C          -0.141    -4.717     0.442  C    
     12 Cl         -1.042    -4.691     1.959  Cl   
     13 Cl         -1.145    -4.801    -1.008  Cl   
     14 H           4.019    -9.393     0.626  H    
     15 H           4.931    -8.430    -0.546  H    
     16 H           4.300   -10.017    -1.015  H    
     17 H           2.914    -8.202    -1.969  H    
     18 H           1.740   -10.314    -1.328  H    
     19 H           0.670    -8.925    -1.134  H    
     20 H           1.423    -9.657     0.291  H    
     21 H           1.025    -6.536    -1.287  H    
     22 H           3.671    -4.998    -1.013  H    
     23 H           3.092    -5.847    -2.451  H    
     24 H           2.714    -3.433    -2.712  H    
     25 H           1.175    -4.280    -2.642  H    
     26 H           2.494    -2.501    -0.572  H    
     27 H           0.857    -2.393    -1.207  H    
     28 H           1.311    -3.286     1.343  H    
     29 H           1.588    -5.668     1.511  H    
@<TRIPOS>BOND
     1    1    2 1
     2    2    3 1
     3    2    4 1
     4    4    5 1
     5    5   10 1
     6    5    6 1
     7    6    7 1
     8    7    8 1
     9    8    9 1
    10    9   11 1
    11    9   10 1
    12   10   11 1
    13   11   12 1
    14   11   13 1
    15    1   14 1
    16    1   15 1
    17    1   16 1
    18    2   17 1
    19    3   18 1
    20    3   19 1
    21    3   20 1
    22    5   21 1
    23    6   22 1
    24    6   23 1
    25    7   24 1
    26    7   25 1
    27    8   26 1
    28    8   27 1
    29    9   28 1
    30   10   29 1
@<TRIPOS>MOLECULE
ZINC00090063
 38 39 0 0 0
SMALL
NO_CHARGES


@<TRIPOS>ATOM
      1 C           8.015     4.726     2.491  C    
      2 C           7.021     3.840     1.911  C    
      3 C           5.789     4.174     1.444  C    
      4 C           5.013     3.101     0.753  C    
      5 C           5.928     2.182     0.030  C    
      6 C           7.161     2.001     0.570  C    
      7 O           7.448     2.562     1.769  O    
      8 N           8.105     1.272     0.053  N    
      9 C           5.700     1.874    -1.197  C    
     10 N           5.515     1.644    -2.312  N    
     11 C           4.082     2.285     1.742  C    
     12 C           3.322     1.122     1.018  C    
     13 C           2.341     0.349     1.931  C    
     14 C           1.312     1.305     2.573  C    
     15 C           2.044     2.406     3.377  C    
     16 C           3.046     3.193     2.492  C    
     17 C           5.321     5.453     1.483  C    
     18 O           5.049     6.061     0.446  O    
     19 N           5.099     6.082     2.622  N    
     20 H           8.245     4.390     3.508  H    
     21 H           7.712     5.776     2.533  H    
     22 H           8.923     4.679     1.884  H    
     23 H           4.341     3.574     0.024  H    
     24 H           8.916     1.187     0.517  H    
     25 H           7.973     0.828    -0.765  H    
     26 H           4.720     1.829     2.505  H    
     27 H           2.773     1.535     0.167  H    
     28 H           4.030     0.388     0.627  H    
     29 H           1.815    -0.401     1.337  H    
     30 H           2.896    -0.174     2.711  H    
     31 H           0.691     1.762     1.796  H    
     32 H           0.648     0.742     3.235  H    
     33 H           1.309     3.101     3.785  H    
     34 H           2.574     1.950     4.217  H    
     35 H           3.565     3.888     3.152  H    
     36 H           2.490     3.779     1.759  H    
     37 H           4.757     6.994     2.625  H    
     38 H           5.308     5.637     3.457  H    
@<TRIPOS>BOND
     1    1    2 1
     2    2    7 1
     3    2    3 2
     4    3    4 1
     5    3   17 1
     6    4    5 1
     7    4   11 1
     8    5    6 2
     9    5    9 1
    10    6    7 1
    11    6    8 1
    12    9   10 3
    13   11   16 1
    14   11   12 1
    15   12   13 1
    16   13   14 1
    17   14   15 1
    18   15   16 1
    19   17   18 2
    20   17   19 1
    21    1   20 1
    22    1   21 1
    23    1   22 1
    24    4   23 1
    25    8   24 1
    26    8   25 1
    27   11   26 1
    28   12   27 1
    29   12   28 1
    30   13   29 1
    31   13   30 1
    32   14   31 1
    33   14   32 1
    34   15   33 1
    35   15   34 1
    36   16   35 1
    37   16   36 1
    38   19   37 1
    39   19   38 1
@<TRIPOS>MOLECULE
ZINC00098042
 34 35 0 0 0
SMALL
NO_CHARGES


@<TRIPOS>ATOM
      1 C           5.264    -8.819    -2.025  C    
      2 C           4.872    -7.531    -1.406  C    
      3 C           4.893    -6.328    -2.134  C    
      4 C           4.524    -5.100    -1.534  C    
      5 C           4.114    -5.091    -0.172  C    
      6 C           4.108    -6.301     0.584  C    
      7 C           4.483    -7.506    -0.052  C    
      8 C           3.758    -6.320     2.028  C    
      9 N           3.774    -3.908     0.405  N    
     10 C           2.546    -3.470     0.738  C    
     11 N           1.423    -4.197     0.460  N    
     12 C           0.108    -3.799     0.853  C    
     13 C           0.024    -2.343     1.381  C    
     14 C           1.325    -1.992     2.142  C    
     15 O           2.477    -2.227     1.311  O    
     16 C           4.576    -3.888    -2.393  C    
     17 H           6.116    -9.238    -1.485  H    
     18 H           5.545    -8.704    -3.075  H    
     19 H           4.428    -9.520    -1.969  H    
     20 H           5.180    -6.338    -3.118  H    
     21 H           4.481    -8.384     0.476  H    
     22 H           4.434    -5.661     2.576  H    
     23 H           3.838    -7.320     2.464  H    
     24 H           2.733    -5.979     2.169  H    
     25 H           1.536    -5.074     0.052  H    
     26 H          -0.564    -3.914     0.001  H    
     27 H          -0.215    -4.490     1.635  H    
     28 H          -0.084    -1.657     0.535  H    
     29 H          -0.846    -2.228     2.035  H    
     30 H           1.307    -0.937     2.419  H    
     31 H           1.397    -2.583     3.059  H    
     32 H           5.596    -3.748    -2.759  H    
     33 H           4.276    -2.979    -1.872  H    
     34 H           3.911    -4.024    -3.248  H    
@<TRIPOS>BOND
     1    1    2 1
     2    2    7 ar
     3    2    3 ar
     4    3    4 ar
     5    4    5 ar
     6    4   16 1
     7    5    6 ar
     8    5    9 1
     9    6    7 ar
    10    6    8 1
    11    9   10 2
    12   10   15 1
    13   10   11 1
    14   11   12 1
    15   12   13 1
    16   13   14 1
    17   14   15 1
    18    1   17 1
    19    1   18 1
    20    1   19 1
    21    3   20 1
    22    7   21 1
    23    8   22 1
    24    8   23 1
    25    8   24 1
    26   11   25 1
    27   12   26 1
    28   12   27 1
    29   13   28 1
    30   13   29 1
    31   14   30 1
    32   14   31 1
    33   16   32 1
    34   16   33 1
    35   16   34 1
@<TRIPOS>MOLECULE
ZINC00100118
 23 24 0 0 0
SMALL
NO_CHARGES


@<TRIPOS>ATOM
      1 C           4.258    -9.625    -0.148  C    
      2 C           4.209    -8.152    -0.320  C    
      3 C           2.986    -7.467    -0.475  C    
      4 C           2.963    -6.070    -0.638  C    
      5 C           4.163    -5.315    -0.660  C    
      6 C           5.385    -6.015    -0.505  C    
      7 C           5.407    -7.411    -0.331  C    
      8 C           4.155    -3.922    -0.830  C    
      9 O           5.142    -3.351    -1.286  O    
     10 C           3.104    -3.122    -0.516  C    
     11 C           2.590    -2.930     0.713  C    
     12 C           1.567    -2.074     0.673  C    
     13 S           1.251    -1.504    -0.896  S    
     14 N           2.508    -2.437    -1.420  N    
     15 Cl          0.646    -1.560     1.960  Cl   
     16 Cl          3.166    -3.640     2.114  Cl   
     17 H           4.870   -10.072    -0.935  H    
     18 H           3.262   -10.072    -0.191  H    
     19 H           4.700    -9.867     0.821  H    
     20 H           2.099    -7.978    -0.467  H    
     21 H           2.057    -5.611    -0.754  H    
     22 H           6.276    -5.512    -0.508  H    
     23 H           6.307    -7.883    -0.212  H    
@<TRIPOS>BOND
     1    1    2 1
     2    2    7 ar
     3    2    3 ar
     4    3    4 ar
     5    4    5 ar
     6    5    6 ar
     7    5    8 1
     8    6    7 ar
     9    8    9 2
    10    8   10 1
    11   10   14 2
    12   10   11 1
    13   11   12 2
    14   11   16 1
    15   12   13 1
    16   12   15 1
    17   13   14 1
    18    1   17 1
    19    1   18 1
    20    1   19 1
    21    3   20 1
    22    4   21 1
    23    6   22 1
    24    7   23 1
@<TRIPOS>MOLECULE
ZINC00104518
 30 32 0 0 0
SMALL
NO_CHARGES


@<TRIPOS>ATOM
      1 C          -6.227     7.320     0.962  C    
      2 C          -6.527     8.610     1.436  C    
      3 C          -7.338     8.792     2.562  C    
      4 C          -7.843     7.657     3.193  C    
      5 C          -7.552     6.355     2.759  C    
      6 C          -6.738     6.187     1.616  C    
      7 C          -8.131     5.335     3.563  C    
      8 C          -8.880     5.832     4.634  C    
      9 S          -8.828     7.540     4.591  S    
     10 C          -7.939     3.979     3.339  C    
     11 C          -6.812     3.334     3.738  C    
     12 C          -5.645     3.962     4.146  C    
     13 C          -5.612     4.708     5.346  C    
     14 C          -4.446     5.365     5.756  C    
     15 C          -3.283     5.284     4.971  C    
     16 C          -3.301     4.559     3.767  C    
     17 C          -4.470     3.903     3.358  C    
     18 F          -2.189     5.876     5.363  F    
     19 C          -8.959     3.292     2.979  C    
     20 N          -9.893     2.686     2.706  N    
     21 H          -5.637     7.208     0.144  H    
     22 H          -6.163     9.425     0.967  H    
     23 H          -7.565     9.706     2.934  H    
     24 H          -6.513     5.253     1.266  H    
     25 H          -9.326     5.297     5.362  H    
     26 H          -6.740     2.354     3.594  H    
     27 H          -6.439     4.760     5.941  H    
     28 H          -4.435     5.896     6.627  H    
     29 H          -2.457     4.504     3.195  H    
     30 H          -4.469     3.396     2.474  H    
@<TRIPOS>BOND
     1    1    6 ar
     2    1    2 ar
     3    2    3 ar
     4    3    4 ar
     5    4    9 1
     6    4    5 ar
     7    5    6 ar
     8    5    7 1
     9    7    8 2
    10    7   10 1
    11    8    9 1
    12   10   11 2
    13   10   19 1
    14   11   12 1
    15   12   17 ar
    16   12   13 ar
    17   13   14 ar
    18   14   15 ar
    19   15   16 ar
    20   15   18 1
    21   16   17 ar
    22   19   20 3
    23    1   21 1
    24    2   22 1
    25    3   23 1
    26    6   24 1
    27    8   25 1
    28   11   26 1
    29   13   27 1
    30   14   28 1
    31   16   29 1
    32   17   30 1
@<TRIPOS>MOLECULE
ZINC00118979
 27 28 0 0 0
SMALL
NO_CHARGES


@<TRIPOS>ATOM
      1 C           7.159    -6.147    -0.369  C    
      2 C           5.831    -6.032     0.270  C    
      3 C           5.200    -4.783     0.485  C    
      4 C           3.927    -4.722     1.117  C    
      5 N           3.389    -5.936     1.445  N    
      6 C           3.974    -7.141     1.238  C    
      7 N           5.194    -7.170     0.654  N    
      8 S           3.106    -8.564     1.741  S    
      9 C           4.232    -9.874     1.214  C    
     10 N           3.212    -3.568     1.395  N    
     11 C           1.864    -3.664     1.709  C    
     12 C           1.091    -2.589     1.955  C    
     13 C           1.672    -1.365     1.904  C    
     14 O           1.033    -0.343     2.108  O    
     15 N           2.967    -1.256     1.648  N    
     16 C           3.736    -2.316     1.404  C    
     17 O           4.919    -2.041     1.278  O    
     18 Br         -0.687    -2.798     2.362  Br   
     19 H           7.851    -6.643     0.314  H    
     20 H           7.568    -5.170    -0.624  H    
     21 H           7.078    -6.740    -1.281  H    
     22 H           5.665    -3.944     0.139  H    
     23 H           4.391    -9.826     0.134  H    
     24 H           3.789   -10.837     1.462  H    
     25 H           5.189    -9.780     1.732  H    
     26 H           1.407    -4.548     1.747  H    
     27 H           3.373    -0.374     1.645  H    
@<TRIPOS>BOND
     1    1    2 1
     2    2    7 ar
     3    2    3 ar
     4    3    4 ar
     5    4    5 ar
     6    4   10 1
     7    5    6 ar
     8    6    7 ar
     9    6    8 1
    10    8    9 1
    11   10   16 1
    12   10   11 1
    13   11   12 2
    14   12   13 1
    15   12   18 1
    16   13   14 2
    17   13   15 1
    18   15   16 1
    19   16   17 2
    20    1   19 1
    21    1   20 1
    22    1   21 1
    23    3   22 1
    24    9   23 1
    25    9   24 1
    26    9   25 1
    27   11   26 1
    28   15   27 1
@<TRIPOS>MOLECULE
ZINC00120261
 24 24 0 0 0
SMALL
NO_CHARGES


@<TRIPOS>ATOM
      1 C          -0.125    -0.919     5.419  C    
      2 C           1.278    -1.568     5.321  C    
      3 C           2.120    -1.320     6.604  C    
      4 C           3.412    -2.050     6.614  C    
      5 C           3.449    -3.452     6.789  C    
      6 C           4.672    -4.151     6.804  C    
      7 C           5.887    -3.461     6.642  C    
      8 C           5.864    -2.065     6.471  C    
      9 C           4.641    -1.368     6.461  C    
     10 Cl          7.351    -4.295     6.654  Cl   
     11 N           1.972    -1.045     4.134  N    
     12 H          -0.679    -1.336     6.263  H    
     13 H          -0.693    -1.115     4.509  H    
     14 H          -0.041     0.161     5.554  H    
     15 H           1.136    -2.642     5.180  H    
     16 H           2.286    -0.244     6.708  H    
     17 H           1.554    -1.629     7.486  H    
     18 H           2.583    -3.980     6.917  H    
     19 H           4.669    -5.165     6.934  H    
     20 H           6.736    -1.546     6.351  H    
     21 H           4.659    -0.356     6.332  H    
     22 H           1.432    -1.269     3.297  H    
     23 H           2.898    -1.471     4.061  H    
     24 H           2.071    -0.031     4.213  H    
@<TRIPOS>BOND
     1    1    2 1
     2    2    3 1
     3    2   11 1
     4    3    4 1
     5    4    9 ar
     6    4    5 ar
     7    5    6 ar
     8    6    7 ar
     9    7    8 ar
    10    7   10 1
    11    8    9 ar
    12    1   12 1
    13    1   13 1
    14    1   14 1
    15    2   15 1
    16    3   16 1
    17    3   17 1
    18    5   18 1
    19    6   19 1
    20    8   20 1
    21    9   21 1
    22   11   22 1
    23   11   23 1
    24   11   24 1
@<TRIPOS>MOLECULE
ZINC00127821
 22 23 0 0 0
SMALL
NO_CHARGES


@<TRIPOS>ATOM
      1 C           5.195    -6.541     1.974  C    
      2 C           4.738    -5.330     2.513  C    
      3 C           3.865    -4.522     1.767  C    
      4 C           3.440    -4.916     0.476  C    
      5 C           3.918    -6.134    -0.096  C    
      6 C           4.790    -6.935     0.686  C    
      7 C           3.530    -6.555    -1.478  C    
      8 F           2.181    -6.808    -1.537  F    
      9 F           3.837    -5.565    -2.384  F    
     10 F           4.150    -7.697    -1.936  F    
     11 N           2.589    -4.077    -0.185  N    
     12 C           1.257    -4.229    -0.284  C    
     13 N           0.750    -3.188    -0.959  N    
     14 N           1.728    -2.390    -1.271  N    
     15 C           2.872    -2.908    -0.801  C    
     16 S           4.400    -2.096    -1.016  S    
     17 H           5.828    -7.135     2.516  H    
     18 H           5.038    -5.032     3.445  H    
     19 H           3.533    -3.644     2.175  H    
     20 H           5.147    -7.821     0.328  H    
     21 H           0.706    -5.007     0.095  H    
     22 H           5.159    -3.198    -0.779  H    
@<TRIPOS>BOND
     1    1    6 ar
     2    1    2 ar
     3    2    3 ar
     4    3    4 ar
     5    4    5 ar
     6    4   11 1
     7    5    6 ar
     8    5    7 1
     9    7    8 1
    10    7    9 1
    11    7   10 1
    12   11   15 1
    13   11   12 1
    14   12   13 2
    15   13   14 1
    16   14   15 2
    17   15   16 1
    18    1   17 1
    19    2   18 1
    20    3   19 1
    21    6   20 1
    22   12   21 1
    23   16   22 1
@<TRIPOS>MOLECULE
ZINC00129266
 25 26 0 0 0
SMALL
NO_CHARGES


@<TRIPOS>ATOM
      1 C          -6.427     1.682    -1.709  C    
      2 C          -5.264     2.319    -1.141  C    
      3 N          -4.170     2.554    -1.767  N    
      4 C          -3.324     3.122    -0.979  C    
      5 C          -2.050     3.452    -1.264  C    
      6 C          -1.415     3.320    -2.501  C    
      7 C          -2.078     3.549    -3.732  C    
      8 C          -1.392     3.433    -4.951  C    
      9 C          -0.030     3.086    -4.962  C    
     10 C           0.676     2.857    -3.757  C    
     11 C          -0.038     2.990    -2.539  C    
     12 N           2.001     2.521    -3.775  N    
     13 O           2.633     2.306    -2.775  O    
     14 O           2.682     2.410    -4.886  O    
     15 C          -3.939     3.246     0.233  C    
     16 O          -3.436     3.789     1.363  O    
     17 O          -5.178     2.729     0.115  O    
     18 H          -6.646     0.766    -1.154  H    
     19 H          -6.264     1.430    -2.757  H    
     20 H          -7.284     2.357    -1.640  H    
     21 H          -1.490     3.765    -0.503  H    
     22 H          -3.059     3.834    -3.755  H    
     23 H          -1.884     3.606    -5.830  H    
     24 H           0.441     3.009    -5.866  H    
     25 H           0.455     2.825    -1.656  H    
@<TRIPOS>BOND
     1    1    2 1
     2    2   17 1
     3    2    3 2
     4    3    4 1
     5    4    5 2
     6    4   15 1
     7    5    6 1
     8    6   11 ar
     9    6    7 ar
    10    7    8 ar
    11    8    9 ar
    12    9   10 ar
    13   10   11 ar
    14   10   12 1
    15   12   13 2
    16   12   14 1
    17   15   16 2
    18   15   17 1
    19    1   18 1
    20    1   19 1
    21    1   20 1
    22    5   21 1
    23    7   22 1
    24    8   23 1
    25    9   24 1
    26   11   25 1
@<TRIPOS>MOLECULE
ZINC00132716
 31 33 0 0 0
SMALL
NO_CHARGES


@<TRIPOS>ATOM
      1 C           5.689    -4.525    -1.578  C    
      2 O           4.517    -4.914    -0.835  O    
      3 C           4.682    -4.895     0.503  C    
      4 C           5.037    -6.072     1.178  C    
      5 C           5.252    -7.294     0.495  C    
      6 C           5.646    -8.445     1.192  C    
      7 C           5.828    -8.395     2.580  C    
      8 C           5.589    -7.201     3.292  C    
      9 C           5.186    -6.027     2.593  C    
     10 N           4.934    -4.826     3.265  N    
     11 C           4.612    -3.720     2.559  C    
     12 O           4.456    -2.645     3.135  O    
     13 C           4.437    -3.751     1.189  C    
     14 N           4.024    -2.688     0.554  N    
     15 O           2.921    -2.610     0.178  O    
     16 O           4.764    -1.660     0.457  O    
     17 C           5.075    -4.747     4.715  C    
     18 C           4.937    -6.104     5.443  C    
     19 C           5.809    -7.174     4.758  C    
     20 H           5.990    -3.499    -1.350  H    
     21 H           5.443    -4.576    -2.638  H    
     22 H           6.527    -5.200    -1.386  H    
     23 H           5.135    -7.367    -0.518  H    
     24 H           5.808    -9.320     0.686  H    
     25 H           6.131    -9.243     3.064  H    
     26 H           6.053    -4.311     4.940  H    
     27 H           4.313    -4.096     5.156  H    
     28 H           5.233    -5.994     6.489  H    
     29 H           3.889    -6.419     5.419  H    
     30 H           5.572    -8.142     5.213  H    
     31 H           6.865    -6.964     4.946  H    
@<TRIPOS>BOND
     1    1    2 1
     2    2    3 1
     3    3   13 2
     4    3    4 1
     5    4    9 ar
     6    4    5 ar
     7    5    6 ar
     8    6    7 ar
     9    7    8 ar
    10    8   19 1
    11    8    9 ar
    12    9   10 1
    13   10   11 1
    14   10   17 1
    15   11   12 2
    16   11   13 1
    17   13   14 1
    18   14   15 2
    19   14   16 1
    20   17   18 1
    21   18   19 1
    22    1   20 1
    23    1   21 1
    24    1   22 1
    25    5   23 1
    26    6   24 1
    27    7   25 1
    28   17   26 1
    29   17   27 1
    30   18   28 1
    31   18   29 1
    32   19   30 1
    33   19   31 1
@<TRIPOS>MOLECULE
ZINC00154382
 43 44 0 0 0
SMALL
NO_CHARGES


@<TRIPOS>ATOM
      1 C          -0.779    -0.390    -0.265  C    
      2 C          -1.024    -2.852    -0.432  C    
      3 C          -0.478    -4.215     0.063  C    
      4 C           1.024    -4.392    -0.290  C    
      5 C           1.845    -3.171     0.218  C    
      6 C           1.241    -1.832    -0.274  C    
      7 C           2.837    -6.199    -0.112  C    
      8 C           3.856    -6.028     1.050  C    
      9 C           5.219    -6.682     0.705  C    
     10 C           4.104    -8.314    -0.814  C    
     11 C           2.716    -7.698    -0.501  C    
     12 C           6.359    -8.798     0.102  C    
     13 N          -0.205    -1.716     0.098  N    
     14 N           1.497    -5.679     0.287  N    
     15 N           5.051    -8.123     0.331  N    
     16 H          -0.826    -0.261    -1.349  H    
     17 H          -0.178     0.424     0.156  H    
     18 H          -1.790    -0.291     0.143  H    
     19 H          -1.031    -2.838    -1.525  H    
     20 H          -2.057    -2.763    -0.087  H    
     21 H          -0.609    -4.277     1.147  H    
     22 H          -1.055    -5.017    -0.398  H    
     23 H           1.103    -4.448    -1.380  H    
     24 H           1.864    -3.171     1.312  H    
     25 H           2.878    -3.231    -0.138  H    
     26 H           1.815    -1.016     0.182  H    
     27 H           1.360    -1.758    -1.360  H    
     28 H           3.211    -5.663    -0.990  H    
     29 H           4.018    -4.968     1.259  H    
     30 H           3.461    -6.494     1.957  H    
     31 H           5.687    -6.128    -0.114  H    
     32 H           5.866    -6.592     1.583  H    
     33 H           3.958    -9.380    -1.007  H    
     34 H           4.510    -7.860    -1.722  H    
     35 H           2.256    -8.256     0.319  H    
     36 H           2.077    -7.796    -1.381  H    
     37 H           6.912    -8.328    -0.715  H    
     38 H           6.214    -9.857    -0.140  H    
     39 H           6.972    -8.755     1.009  H    
     40 H          -0.249    -1.771     1.120  H    
     41 H           1.472    -5.599     1.306  H    
     42 H           0.806    -6.387     0.026  H    
     43 H           4.632    -8.590     1.139  H    
@<TRIPOS>BOND
     1    1   13 1
     2    2    3 1
     3    2   13 1
     4    3    4 1
     5    4    5 1
     6    4   14 1
     7    5    6 1
     8    6   13 1
     9    7   11 1
    10    7    8 1
    11    7   14 1
    12    8    9 1
    13    9   15 1
    14   10   11 1
    15   10   15 1
    16   12   15 1
    17    1   16 1
    18    1   17 1
    19    1   18 1
    20    2   19 1
    21    2   20 1
    22    3   21 1
    23    3   22 1
    24    4   23 1
    25    5   24 1
    26    5   25 1
    27    6   26 1
    28    6   27 1
    29    7   28 1
    30    8   29 1
    31    8   30 1
    32    9   31 1
    33    9   32 1
    34   10   33 1
    35   10   34 1
    36   11   35 1
    37   11   36 1
    38   12   37 1
    39   12   38 1
    40   12   39 1
    41   13   40 1
    42   14   41 1
    43   14   42 1
    44   15   43 1
@<TRIPOS>MOLECULE
ZINC00155219
 27 27 0 0 0
SMALL
NO_CHARGES


@<TRIPOS>ATOM
      1 C           5.237    -7.464     0.368  C    
      2 C           3.787    -7.177     0.342  C    
      3 C           2.885    -7.977     1.086  C    
      4 C           1.513    -7.676     1.081  C    
      5 C           1.020    -6.531     0.407  C    
      6 C           1.896    -5.773    -0.432  C    
      7 C           3.278    -6.097    -0.422  C    
      8 N           1.591    -4.712    -1.234  N    
      9 C           0.326    -4.084    -1.525  C    
     10 C           0.551    -2.592    -1.882  C    
     11 C          -0.393    -4.821    -2.688  C    
     12 C          -0.284    -6.431     0.390  C    
     13 N          -1.431    -6.356     0.344  N    
     14 H           5.592    -7.672    -0.642  H    
     15 H           5.484    -8.325     0.997  H    
     16 H           5.779    -6.600     0.761  H    
     17 H           3.218    -8.767     1.628  H    
     18 H           0.895    -8.290     1.604  H    
     19 H           3.933    -5.550    -0.978  H    
     20 H           2.339    -4.314    -1.693  H    
     21 H          -0.318    -4.071    -0.643  H    
     22 H           1.025    -2.079    -1.043  H    
     23 H          -0.412    -2.110    -2.076  H    
     24 H           1.184    -2.484    -2.767  H    
     25 H           0.211    -4.788    -3.598  H    
     26 H          -1.359    -4.353    -2.891  H    
     27 H          -0.566    -5.866    -2.431  H    
@<TRIPOS>BOND
     1    1    2 1
     2    2    7 ar
     3    2    3 ar
     4    3    4 ar
     5    4    5 ar
     6    5    6 ar
     7    5   12 1
     8    6    7 ar
     9    6    8 1
    10    8    9 1
    11    9   10 1
    12    9   11 1
    13   12   13 3
    14    1   14 1
    15    1   15 1
    16    1   16 1
    17    3   17 1
    18    4   18 1
    19    7   19 1
    20    8   20 1
    21    9   21 1
    22   10   22 1
    23   10   23 1
    24   10   24 1
    25   11   25 1
    26   11   26 1
    27   11   27 1
@<TRIPOS>MOLECULE
ZINC00158543
 17 18 0 0 0
SMALL
NO_CHARGES


@<TRIPOS>ATOM
      1 C           3.816    -0.603     3.024  C    
      2 C           3.452    -0.811     1.677  C    
      3 C           2.803    -2.006     1.325  C    
      4 C           2.520    -2.968     2.281  C    
      5 C           2.873    -2.774     3.627  C    
      6 C           3.532    -1.577     4.013  C    
      7 N           3.914    -1.294     5.281  N    
      8 C           3.774    -1.989     6.306  C    
      9 S           3.599    -2.886     7.658  S    
     10 O           1.889    -4.031     1.750  O    
     11 C           1.915    -3.714     0.345  C    
     12 O           2.376    -2.372     0.103  O    
     13 H           4.289     0.267     3.279  H    
     14 H           3.656    -0.105     0.968  H    
     15 H           2.649    -3.498     4.312  H    
     16 H           2.578    -4.417    -0.167  H    
     17 H           0.911    -3.830    -0.068  H    
@<TRIPOS>BOND
     1    1    6 ar
     2    1    2 ar
     3    2    3 ar
     4    3   12 1
     5    3    4 ar
     6    4    5 ar
     7    4   10 1
     8    5    6 ar
     9    6    7 1
    10    7    8 2
    11    8    9 2
    12   10   11 1
    13   11   12 1
    14    1   13 1
    15    2   14 1
    16    5   15 1
    17   11   16 1
    18   11   17 1
@<TRIPOS>MOLECULE
ZINC00180068
 33 35 0 0 0
SMALL
NO_CHARGES


@<TRIPOS>ATOM
      1 C           7.495    -9.733     1.386  C    
      2 C           6.227    -9.058     1.010  C    
      3 C           5.687    -8.032     1.814  C    
      4 C           4.467    -7.380     1.487  C    
      5 C           3.780    -7.786     0.306  C    
      6 C           4.327    -8.812    -0.507  C    
      7 C           5.537    -9.439    -0.162  C    
      8 F           6.001   -10.376    -0.950  F    
      9 C           2.566    -7.149    -0.013  C    
     10 O           1.864    -7.639    -0.890  O    
     11 C           2.095    -6.088     0.735  C    
     12 C           2.770    -5.749     1.859  C    
     13 N           3.917    -6.369     2.250  N    
     14 C           4.493    -5.946     3.426  C    
     15 C           4.392    -6.748     4.587  C    
     16 C           4.983    -6.336     5.794  C    
     17 C           5.673    -5.110     5.858  C    
     18 C           5.780    -4.304     4.708  C    
     19 C           5.196    -4.717     3.494  C    
     20 F           5.315    -3.958     2.439  F    
     21 F           6.201    -4.714     6.983  F    
     22 C           0.958    -5.358     0.356  C    
     23 O           0.309    -4.527     1.208  O    
     24 O           0.459    -5.390    -0.906  O    
     25 H           7.320   -10.807     1.500  H    
     26 H           7.901    -9.356     2.327  H    
     27 H           8.242    -9.575     0.603  H    
     28 H           6.206    -7.748     2.648  H    
     29 H           3.852    -9.106    -1.365  H    
     30 H           2.424    -4.994     2.418  H    
     31 H           3.890    -7.639     4.548  H    
     32 H           4.906    -6.926     6.625  H    
     33 H           6.291    -3.419     4.754  H    
@<TRIPOS>BOND
     1    1    2 1
     2    2    7 ar
     3    2    3 ar
     4    3    4 ar
     5    4   13 1
     6    4    5 ar
     7    5    6 ar
     8    5    9 1
     9    6    7 ar
    10    7    8 1
    11    9   10 2
    12    9   11 1
    13   11   12 2
    14   11   22 1
    15   12   13 1
    16   13   14 1
    17   14   19 ar
    18   14   15 ar
    19   15   16 ar
    20   16   17 ar
    21   17   18 ar
    22   17   21 1
    23   18   19 ar
    24   19   20 1
    25   22   23 2
    26   22   24 1
    27    1   25 1
    28    1   26 1
    29    1   27 1
    30    3   28 1
    31    6   29 1
    32   12   30 1
    33   15   31 1
    34   16   32 1
    35   18   33 1
@<TRIPOS>MOLECULE
ZINC00205528
 31 34 0 0 0
SMALL
NO_CHARGES


@<TRIPOS>ATOM
      1 C           4.833    -9.119     0.540  C    
      2 C           3.610    -8.604     0.055  C    
      3 C           3.110    -7.377     0.536  C    
      4 C           3.838    -6.669     1.517  C    
      5 C           5.057    -7.188     1.981  C    
      6 C           5.573    -8.408     1.507  C    
      7 C           5.537    -6.293     2.921  C    
      8 C           4.601    -5.262     3.014  C    
      9 N           3.575    -5.503     2.166  N    
     10 C           2.419    -4.666     1.975  C    
     11 C           2.559    -3.887     0.734  C    
     12 O           3.568    -2.994     0.614  O    
     13 N           4.841    -4.236     3.872  N    
     14 C           5.965    -4.196     4.643  C    
     15 C           6.205    -3.127     5.527  C    
     16 C           7.369    -3.109     6.319  C    
     17 C           8.299    -4.164     6.232  C    
     18 C           8.068    -5.238     5.350  C    
     19 C           6.907    -5.262     4.549  C    
     20 N           6.662    -6.284     3.681  N    
     21 O           1.710    -4.067    -0.304  O    
     22 H           5.181   -10.015     0.193  H    
     23 H           3.080    -9.130    -0.641  H    
     24 H           2.223    -7.013     0.184  H    
     25 H           6.457    -8.779     1.866  H    
     26 H           1.515    -5.284     1.940  H    
     27 H           2.292    -3.959     2.800  H    
     28 H           5.536    -2.359     5.597  H    
     29 H           7.540    -2.328     6.960  H    
     30 H           9.145    -4.148     6.812  H    
     31 H           8.749    -5.998     5.297  H    
@<TRIPOS>BOND
     1    1    6 ar
     2    1    2 ar
     3    2    3 ar
     4    3    4 ar
     5    4    9 1
     6    4    5 ar
     7    5    6 ar
     8    5    7 1
     9    7   20 ar
    10    7    8 ar
    11    8    9 1
    12    8   13 ar
    13    9   10 1
    14   10   11 1
    15   11   12 2
    16   11   21 1
    17   13   14 ar
    18   14   19 ar
    19   14   15 ar
    20   15   16 ar
    21   16   17 ar
    22   17   18 ar
    23   18   19 ar
    24   19   20 ar
    25    1   22 1
    26    2   23 1
    27    3   24 1
    28    6   25 1
    29   10   26 1
    30   10   27 1
    31   15   28 1
    32   16   29 1
    33   17   30 1
    34   18   31 1
@<TRIPOS>MOLECULE
ZINC00214777
 35 36 0 0 0
SMALL
NO_CHARGES


@<TRIPOS>ATOM
      1 C           4.118    -9.979     1.308  C    
      2 C           4.652    -8.816     2.185  C    
      3 C           5.700    -9.323     3.214  C    
      4 C           5.233    -7.768     1.342  C    
      5 C           4.764    -6.514     1.150  C    
      6 C           5.555    -5.528     0.453  C    
      7 C           4.757    -4.223     0.625  C    
      8 C           3.549    -4.641     1.304  C    
      9 C           2.491    -3.846     1.585  C    
     10 C           2.393    -2.478     1.353  C    
     11 C           3.343    -1.555     1.862  C    
     12 C           3.193    -0.172     1.641  C    
     13 C           2.090     0.312     0.905  C    
     14 C           1.122    -0.593     0.420  C    
     15 C           1.268    -1.975     0.648  C    
     16 Cl          1.919     1.976     0.640  Cl   
     17 C           3.592    -5.972     1.547  C    
     18 O           2.570    -6.640     1.633  O    
     19 H           4.929   -10.461     0.753  H    
     20 H           3.377    -9.614     0.592  H    
     21 H           3.635   -10.733     1.939  H    
     22 H           3.810    -8.434     2.769  H    
     23 H           5.246   -10.056     3.882  H    
     24 H           6.069    -8.490     3.822  H    
     25 H           6.550    -9.788     2.709  H    
     26 H           6.089    -8.004     0.888  H    
     27 H           6.550    -5.430     0.901  H    
     28 H           5.661    -5.798    -0.602  H    
     29 H           5.326    -3.509     1.226  H    
     30 H           4.523    -3.778    -0.346  H    
     31 H           1.664    -4.285     1.927  H    
     32 H           4.126    -1.879     2.438  H    
     33 H           3.892     0.477     2.014  H    
     34 H           0.310    -0.248    -0.105  H    
     35 H           0.550    -2.615     0.291  H    
@<TRIPOS>BOND
     1    1    2 1
     2    2    3 1
     3    2    4 1
     4    4    5 2
     5    5   17 1
     6    5    6 1
     7    6    7 1
     8    7    8 1
     9    8    9 2
    10    8   17 1
    11    9   10 1
    12   10   15 ar
    13   10   11 ar
    14   11   12 ar
    15   12   13 ar
    16   13   14 ar
    17   13   16 1
    18   14   15 ar
    19   17   18 2
    20    1   19 1
    21    1   20 1
    22    1   21 1
    23    2   22 1
    24    3   23 1
    25    3   24 1
    26    3   25 1
    27    4   26 1
    28    6   27 1
    29    6   28 1
    30    7   29 1
    31    7   30 1
    32    9   31 1
    33   11   32 1
    34   12   33 1
    35   14   34 1
    36   15   35 1
@<TRIPOS>MOLECULE
ZINC00221754
 36 39 0 0 0
SMALL
NO_CHARGES


@<TRIPOS>ATOM
      1 C           5.269     5.237    -0.033  C    
      2 C           5.957     4.757    -1.158  C    
      3 C           5.267     4.018    -2.132  C    
      4 C           3.893     3.748    -1.983  C    
      5 C           3.182     4.221    -0.850  C    
      6 C           3.896     4.971     0.118  C    
      7 C           1.720     3.956    -0.668  C    
      8 C           1.457     2.452    -0.318  C    
      9 C          -0.054     2.092    -0.457  C    
     10 N          -0.625     2.605    -1.670  N    
     11 C          -0.159     3.738    -2.237  C    
     12 N           0.938     4.382    -1.798  N    
     13 N           1.093     5.456    -2.509  N    
     14 C           0.113     5.471    -3.428  C    
     15 N          -0.684     4.403    -3.273  N    
     16 C          -0.314     0.629    -0.346  C    
     17 C          -1.018     0.086     0.752  C    
     18 C          -1.263    -1.296     0.841  C    
     19 C          -0.797    -2.138    -0.181  C    
     20 N          -0.122    -1.610    -1.230  N    
     21 C           0.128    -0.279    -1.339  C    
     22 F           3.304     3.070    -2.928  F    
     23 H           5.766     5.781     0.677  H    
     24 H           6.956     4.949    -1.271  H    
     25 H           5.774     3.680    -2.952  H    
     26 H           3.425     5.334     0.948  H    
     27 H           1.341     4.537     0.180  H    
     28 H           2.038     1.816    -0.984  H    
     29 H           1.792     2.250     0.702  H    
     30 H          -0.579     2.616     0.348  H    
     31 H          -1.447     2.212    -2.009  H    
     32 H          -0.013     6.201    -4.134  H    
     33 H          -1.358     0.692     1.498  H    
     34 H          -1.774    -1.681     1.639  H    
     35 H          -0.962    -3.142    -0.139  H    
     36 H           0.637     0.048    -2.159  H    
@<TRIPOS>BOND
     1    1    6 ar
     2    1    2 ar
     3    2    3 ar
     4    3    4 ar
     5    4    5 ar
     6    4   22 1
     7    5    6 ar
     8    5    7 1
     9    7   12 1
    10    7    8 1
    11    8    9 1
    12    9   10 1
    13    9   16 1
    14   10   11 1
    15   11   15 2
    16   11   12 1
    17   12   13 1
    18   13   14 2
    19   14   15 1
    20   16   21 ar
    21   16   17 ar
    22   17   18 ar
    23   18   19 ar
    24   19   20 ar
    25   20   21 ar
    26    1   23 1
    27    2   24 1
    28    3   25 1
    29    6   26 1
    30    7   27 1
    31    8   28 1
    32    8   29 1
    33    9   30 1
    34   10   31 1
    35   14   32 1
    36   17   33 1
    37   18   34 1
    38   19   35 1
    39   21   36 1
@<TRIPOS>MOLECULE
ZINC00222324
 35 38 0 0 0
SMALL
NO_CHARGES


@<TRIPOS>ATOM
      1 C          -3.204     0.783     0.022  C    
      2 C          -3.187     1.259     1.346  C    
      3 C          -1.963     1.393     2.032  C    
      4 C          -0.756     1.063     1.387  C    
      5 C          -0.773     0.594     0.061  C    
      6 C          -1.998     0.439    -0.638  C    
      7 C          -2.012    -0.067    -2.041  C    
      8 C          -1.479    -1.439    -2.092  C    
      9 C          -0.401    -1.763    -2.845  C    
     10 N           0.206    -0.820    -3.601  N    
     11 C          -0.232     0.458    -3.631  C    
     12 N          -1.291     0.842    -2.901  N    
     13 N          -1.511     2.106    -3.115  N    
     14 C          -0.568     2.523    -3.981  C    
     15 N           0.235     1.505    -4.320  N    
     16 C           0.109    -3.065    -2.893  C    
     17 C           0.510    -3.631    -4.131  C    
     18 C           1.015    -4.942    -4.201  C    
     19 C           1.142    -5.715    -3.029  C    
     20 C           0.754    -5.169    -1.788  C    
     21 C           0.246    -3.858    -1.721  C    
     22 Cl          1.755    -7.293    -3.115  Cl   
     23 F          -1.945     1.830     3.262  F    
     24 H          -4.104     0.693    -0.459  H    
     25 H          -4.066     1.504     1.810  H    
     26 H           0.137     1.160     1.878  H    
     27 H           0.115     0.364    -0.398  H    
     28 H          -3.035    -0.118    -2.427  H    
     29 H          -1.947    -2.141    -1.563  H    
     30 H           0.977    -1.062    -4.143  H    
     31 H          -0.484     3.474    -4.336  H    
     32 H           0.408    -3.103    -5.003  H    
     33 H           1.282    -5.339    -5.107  H    
     34 H           0.840    -5.725    -0.930  H    
     35 H          -0.023    -3.485    -0.805  H    
@<TRIPOS>BOND
     1    1    6 ar
     2    1    2 ar
     3    2    3 ar
     4    3    4 ar
     5    3   23 1
     6    4    5 ar
     7    5    6 ar
     8    6    7 1
     9    7   12 1
    10    7    8 1
    11    8    9 2
    12    9   10 1
    13    9   16 1
    14   10   11 1
    15   11   15 2
    16   11   12 1
    17   12   13 1
    18   13   14 2
    19   14   15 1
    20   16   21 ar
    21   16   17 ar
    22   17   18 ar
    23   18   19 ar
    24   19   20 ar
    25   19   22 1
    26   20   21 ar
    27    1   24 1
    28    2   25 1
    29    4   26 1
    30    5   27 1
    31    7   28 1
    32    8   29 1
    33   10   30 1
    34   14   31 1
    35   17   32 1
    36   18   33 1
    37   20   34 1
    38   21   35 1
@<TRIPOS>MOLECULE
ZINC00222403
 35 37 0 0 0
SMALL
NO_CHARGES


@<TRIPOS>ATOM
      1 C           0.152     7.534     1.323  C    
      2 C           0.035     6.289     0.587  C    
      3 C           0.850     5.980    -0.449  C    
      4 C           0.710     4.720    -1.195  C    
      5 N          -0.326     3.872    -0.658  N    
      6 C          -1.098     4.236     0.379  C    
      7 N          -1.966     3.254     0.649  N    
      8 C          -1.694     2.289    -0.247  C    
      9 N          -0.680     2.685    -1.041  N    
     10 C          -2.382     0.993    -0.359  C    
     11 F          -2.958     0.881    -1.600  F    
     12 F          -1.476    -0.027    -0.195  F    
     13 F          -3.367     0.853     0.590  F    
     14 N          -0.925     5.432     0.984  N    
     15 C           0.459     4.995    -2.642  C    
     16 C           1.406     4.627    -3.627  C    
     17 C           1.169     4.887    -4.989  C    
     18 C          -0.029     5.506    -5.396  C    
     19 C          -0.975     5.887    -4.425  C    
     20 C          -0.736     5.629    -3.063  C    
     21 O          -0.246     5.784    -6.717  O    
     22 C          -0.897     4.713    -7.421  C    
     23 H          -0.782     8.095     1.246  H    
     24 H           0.960     8.170     0.952  H    
     25 H           0.347     7.319     2.376  H    
     26 H           1.571     6.609    -0.721  H    
     27 H           1.652     4.177    -1.067  H    
     28 H          -1.496     5.669     1.732  H    
     29 H           2.283     4.171    -3.360  H    
     30 H           1.869     4.623    -5.686  H    
     31 H          -1.839     6.353    -4.710  H    
     32 H          -1.440     5.912    -2.376  H    
     33 H          -0.305     3.795    -7.390  H    
     34 H          -1.009     5.008    -8.464  H    
     35 H          -1.892     4.519    -7.014  H    
@<TRIPOS>BOND
     1    1    2 1
     2    2   14 1
     3    2    3 2
     4    3    4 1
     5    4    5 1
     6    4   15 1
     7    5    9 1
     8    5    6 1
     9    6    7 2
    10    6   14 1
    11    7    8 1
    12    8    9 2
    13    8   10 1
    14   10   11 1
    15   10   12 1
    16   10   13 1
    17   15   20 ar
    18   15   16 ar
    19   16   17 ar
    20   17   18 ar
    21   18   19 ar
    22   18   21 1
    23   19   20 ar
    24   21   22 1
    25    1   23 1
    26    1   24 1
    27    1   25 1
    28    3   26 1
    29    4   27 1
    30   14   28 1
    31   16   29 1
    32   17   30 1
    33   19   31 1
    34   20   32 1
    35   22   33 1
    36   22   34 1
    37   22   35 1
@<TRIPOS>MOLECULE
ZINC00228577
 29 31 0 0 0
SMALL
NO_CHARGES


@<TRIPOS>ATOM
      1 C           2.896     4.597    -4.691  C    
      2 C           1.963     5.415    -4.067  C    
      3 C           2.139     5.289    -2.690  C    
      4 O           3.144     4.391    -2.483  O    
      5 C           3.614     3.973    -3.679  C    
      6 C           1.368     5.924    -1.725  C    
      7 C           1.597     5.978    -0.395  C    
      8 C           0.704     6.412     0.511  C    
      9 O          -0.414     6.868     0.313  O    
     10 N           1.201     6.227     1.705  N    
     11 N           2.401     5.737     1.628  N    
     12 C           2.671     5.601     0.335  C    
     13 O           3.797     5.421    -0.113  O    
     14 C           3.204     5.497     2.731  C    
     15 C           4.232     4.524     2.703  C    
     16 C           5.052     4.296     3.821  C    
     17 C           4.854     5.024     5.009  C    
     18 C           3.818     5.982     5.073  C    
     19 C           3.006     6.208     3.941  C    
     20 Cl          3.506     6.880     6.482  Cl   
     21 Cl          5.882     4.710     6.323  Cl   
     22 H           3.021     4.468    -5.694  H    
     23 H           1.276     6.003    -4.542  H    
     24 H           4.364     3.293    -3.812  H    
     25 H           0.533     6.352    -2.060  H    
     26 H           0.738     6.444     2.528  H    
     27 H           4.386     3.953     1.872  H    
     28 H           5.791     3.592     3.771  H    
     29 H           2.269     6.913     3.997  H    
@<TRIPOS>BOND
     1    1    5 2
     2    1    2 1
     3    2    3 2
     4    3    4 1
     5    3    6 1
     6    4    5 1
     7    6    7 2
     8    7   12 1
     9    7    8 1
    10    8    9 2
    11    8   10 1
    12   10   11 1
    13   11   12 1
    14   11   14 1
    15   12   13 2
    16   14   19 ar
    17   14   15 ar
    18   15   16 ar
    19   16   17 ar
    20   17   18 ar
    21   17   21 1
    22   18   19 ar
    23   18   20 1
    24    1   22 1
    25    2   23 1
    26    5   24 1
    27    6   25 1
    28   10   26 1
    29   15   27 1
    30   16   28 1
    31   19   29 1
@<TRIPOS>MOLECULE
ZINC00243859
 19 20 0 0 0
SMALL
NO_CHARGES


@<TRIPOS>ATOM
      1 C           5.513    -9.570    -0.666  C    
      2 C           5.377    -8.544    -1.614  C    
      3 C           4.311    -7.630    -1.514  C    
      4 C           3.352    -7.713    -0.469  C    
      5 C           3.518    -8.762     0.473  C    
      6 C           4.582    -9.678     0.378  C    
      7 N           2.322    -6.815    -0.388  N    
      8 C           1.348    -6.721     0.485  C    
      9 C           0.613    -5.680     0.120  C    
     10 O           1.112    -5.119    -0.971  O    
     11 N           2.131    -5.866    -1.200  N    
     12 O          -0.474    -5.232     0.733  O    
     13 H           6.284   -10.234    -0.736  H    
     14 H           6.053    -8.462    -2.376  H    
     15 H           4.247    -6.898    -2.225  H    
     16 H           2.866    -8.880     1.249  H    
     17 H           4.678   -10.423     1.070  H    
     18 H           1.172    -7.300     1.273  H    
     19 H          -0.617    -5.824     1.500  H    
@<TRIPOS>BOND
     1    1    6 ar
     2    1    2 ar
     3    2    3 ar
     4    3    4 ar
     5    4    5 ar
     6    4    7 1
     7    5    6 ar
     8    7   11 2
     9    7    8 1
    10    8    9 2
    11    9   10 1
    12    9   12 1
    13   10   11 1
    14    1   13 1
    15    2   14 1
    16    3   15 1
    17    5   16 1
    18    6   17 1
    19    8   18 1
    20   12   19 1
@<TRIPOS>MOLECULE
ZINC00244898
 34 37 0 0 0
SMALL
NO_CHARGES


@<TRIPOS>ATOM
      1 C          -1.215     2.968     4.123  C    
      2 O          -1.641     2.090     3.066  O    
      3 C          -0.858     1.906     1.945  C    
      4 C           0.253     2.704     1.567  C    
      5 C           0.975     2.428     0.389  C    
      6 C           0.589     1.357    -0.431  C    
      7 C          -0.528     0.557    -0.089  C    
      8 C          -1.240     0.840     1.102  C    
      9 C          -0.879    -0.487    -0.949  C    
     10 C          -0.195    -0.770    -2.088  C    
     11 C           0.920     0.034    -2.398  C    
     12 O           1.670    -0.110    -3.518  O    
     13 O           1.273     1.065    -1.578  O    
     14 C          -0.581    -1.824    -2.927  C    
     15 C          -1.821    -2.473    -3.005  C    
     16 N          -1.745    -3.412    -3.961  N    
     17 C          -2.670    -4.281    -4.420  C    
     18 C          -2.323    -5.139    -5.408  C    
     19 C          -1.044    -5.114    -5.926  C    
     20 C          -0.117    -4.241    -5.473  C    
     21 C          -0.491    -3.367    -4.462  C    
     22 N           0.216    -2.410    -3.844  N    
     23 Cl         -3.434    -6.223    -6.000  Cl   
     24 H          -0.224     2.689     4.494  H    
     25 H          -1.934     2.891     4.939  H    
     26 H          -1.200     4.004     3.779  H    
     27 H           0.554     3.488     2.146  H    
     28 H           1.784     3.001     0.133  H    
     29 H          -2.050     0.270     1.359  H    
     30 H          -1.657    -1.048    -0.691  H    
     31 H          -2.657    -2.263    -2.453  H    
     32 H          -3.587    -4.282    -4.038  H    
     33 H          -0.794    -5.741    -6.651  H    
     34 H           0.797    -4.218    -5.855  H    
@<TRIPOS>BOND
     1    1    2 1
     2    2    3 1
     3    3    8 ar
     4    3    4 ar
     5    4    5 ar
     6    5    6 ar
     7    6   13 1
     8    6    7 ar
     9    7    8 ar
    10    7    9 1
    11    9   10 2
    12   10   11 1
    13   10   14 1
    14   11   12 2
    15   11   13 1
    16   14   22 1
    17   14   15 2
    18   15   16 1
    19   16   21 1
    20   16   17 1
    21   17   18 2
    22   18   19 1
    23   18   23 1
    24   19   20 2
    25   20   21 1
    26   21   22 2
    27    1   24 1
    28    1   25 1
    29    1   26 1
    30    4   27 1
    31    5   28 1
    32    8   29 1
    33    9   30 1
    34   15   31 1
    35   17   32 1
    36   19   33 1
    37   20   34 1
@<TRIPOS>MOLECULE
ZINC00268023
 33 35 0 0 0
SMALL
NO_CHARGES


@<TRIPOS>ATOM
      1 C           8.076    -9.582     0.081  C    
      2 O           8.064    -8.435     0.955  O    
      3 C           6.862    -7.949     1.411  C    
      4 C           5.713    -8.730     1.659  C    
      5 C           4.545    -8.138     2.174  C    
      6 C           4.526    -6.768     2.491  C    
      7 C           5.672    -5.969     2.289  C    
      8 C           6.824    -6.573     1.726  C    
      9 C           5.656    -4.589     2.646  C    
     10 N           4.614    -3.860     2.172  N    
     11 C           4.477    -2.532     2.422  C    
     12 C           3.366    -1.832     1.914  C    
     13 C           3.224    -0.459     2.173  C    
     14 C           4.192     0.216     2.939  C    
     15 C           5.305    -0.481     3.447  C    
     16 C           5.461    -1.867     3.196  C    
     17 C           6.531    -2.635     3.674  C    
     18 O           7.396    -2.083     4.350  O    
     19 N           6.605    -3.957     3.420  N    
     20 N           7.554    -4.638     3.943  N    
     21 H           7.795   -10.480     0.626  H    
     22 H           9.089    -9.720    -0.294  H    
     23 H           7.408    -9.438    -0.771  H    
     24 H           5.714    -9.731     1.468  H    
     25 H           3.710    -8.706     2.337  H    
     26 H           3.674    -6.361     2.885  H    
     27 H           7.653    -6.006     1.540  H    
     28 H           2.662    -2.320     1.358  H    
     29 H           2.417     0.046     1.806  H    
     30 H           4.086     1.216     3.126  H    
     31 H           5.999     0.033     3.999  H    
     32 H           8.207    -4.215     4.464  H    
     33 H           7.593    -5.565     3.822  H    
@<TRIPOS>BOND
     1    1    2 1
     2    2    3 1
     3    3    8 ar
     4    3    4 ar
     5    4    5 ar
     6    5    6 ar
     7    6    7 ar
     8    7    8 ar
     9    7    9 1
    10    9   19 1
    11    9   10 2
    12   10   11 1
    13   11   16 ar
    14   11   12 ar
    15   12   13 ar
    16   13   14 ar
    17   14   15 ar
    18   15   16 ar
    19   16   17 1
    20   17   18 2
    21   17   19 1
    22   19   20 1
    23    1   21 1
    24    1   22 1
    25    1   23 1
    26    4   24 1
    27    5   25 1
    28    6   26 1
    29    8   27 1
    30   12   28 1
    31   13   29 1
    32   14   30 1
    33   15   31 1
    34   20   32 1
    35   20   33 1
@<TRIPOS>MOLECULE
ZINC00269693
 40 42 0 0 0
SMALL
NO_CHARGES


@<TRIPOS>ATOM
      1 C           1.921    -6.966     0.811  C    
      2 C           3.259    -7.320     1.517  C    
      3 C           3.678    -8.795     1.241  C    
      4 C           5.064    -9.131     1.867  C    
      5 C           6.124    -8.073     1.438  C    
      6 N           5.660    -6.725     1.749  N    
      7 C           4.405    -6.349     1.104  C    
      8 C           6.340    -5.916     2.586  C    
      9 O           7.396    -6.257     3.106  O    
     10 C           5.926    -4.685     2.969  C    
     11 C           5.071    -4.437     4.056  C    
     12 C           4.576    -5.457     4.911  C    
     13 C           3.715    -5.149     5.979  C    
     14 C           3.334    -3.818     6.214  C    
     15 C           3.812    -2.790     5.384  C    
     16 C           4.681    -3.084     4.303  C    
     17 C           5.183    -2.093     3.453  C    
     18 O           4.921    -0.909     3.575  O    
     19 N           5.991    -2.459     2.463  N    
     20 N           6.324    -3.685     2.252  N    
     21 C           5.512   -10.576     1.512  C    
     22 H           1.611    -5.952     1.073  H    
     23 H           1.134    -7.653     1.127  H    
     24 H           2.025    -7.030    -0.274  H    
     25 H           3.097    -7.208     2.594  H    
     26 H           2.922    -9.467     1.657  H    
     27 H           3.719    -8.962     0.161  H    
     28 H           4.966    -9.081     2.957  H    
     29 H           7.072    -8.328     1.923  H    
     30 H           6.302    -8.144     0.361  H    
     31 H           4.546    -6.384     0.019  H    
     32 H           4.083    -5.330     1.335  H    
     33 H           4.835    -6.435     4.769  H    
     34 H           3.365    -5.895     6.588  H    
     35 H           2.707    -3.598     6.994  H    
     36 H           3.521    -1.831     5.577  H    
     37 H           6.344    -1.776     1.869  H    
     38 H           4.787   -11.300     1.891  H    
     39 H           6.481   -10.797     1.965  H    
     40 H           5.597   -10.702     0.430  H    
@<TRIPOS>BOND
     1    1    2 1
     2    2    7 1
     3    2    3 1
     4    3    4 1
     5    4    5 1
     6    4   21 1
     7    5    6 1
     8    6    7 1
     9    6    8 1
    10    8    9 2
    11    8   10 1
    12   10   20 2
    13   10   11 1
    14   11   16 ar
    15   11   12 ar
    16   12   13 ar
    17   13   14 ar
    18   14   15 ar
    19   15   16 ar
    20   16   17 1
    21   17   18 2
    22   17   19 1
    23   19   20 1
    24    1   22 1
    25    1   23 1
    26    1   24 1
    27    2   25 1
    28    3   26 1
    29    3   27 1
    30    4   28 1
    31    5   29 1
    32    5   30 1
    33    7   31 1
    34    7   32 1
    35   12   33 1
    36   13   34 1
    37   14   35 1
    38   15   36 1
    39   19   37 1
    40   21   38 1
    41   21   39 1
    42   21   40 1
@<TRIPOS>MOLECULE
ZINC00275134
 29 31 0 0 0
SMALL
NO_CHARGES


@<TRIPOS>ATOM
      1 C           6.984    -5.529    -6.882  C    
      2 C           5.578    -5.616    -7.291  C    
      3 O           5.274    -5.507    -8.604  O    
      4 O           4.620    -5.837    -6.353  O    
      5 C           3.199    -5.952    -6.536  C    
      6 C           2.566    -4.578    -6.920  C    
      7 N           1.142    -4.505    -6.749  N    
      8 C           0.344    -3.489    -7.124  C    
      9 C           0.608    -2.269    -7.775  C    
     10 C          -0.463    -1.392    -8.044  C    
     11 C          -1.779    -1.736    -7.663  C    
     12 C          -2.035    -2.957    -7.008  C    
     13 C          -0.958    -3.819    -6.747  C    
     14 N          -0.939    -5.007    -6.143  N    
     15 C           0.343    -5.410    -6.142  C    
     16 S           0.837    -6.921    -5.429  S    
     17 C           2.587    -6.507    -5.226  C    
     18 H           7.552    -6.325    -7.365  H    
     19 H           7.081    -5.634    -5.798  H    
     20 H           7.391    -4.563    -7.180  H    
     21 H           3.002    -6.677    -7.336  H    
     22 H           3.024    -3.793    -6.309  H    
     23 H           2.815    -4.369    -7.966  H    
     24 H           1.557    -2.019    -8.051  H    
     25 H          -0.287    -0.503    -8.517  H    
     26 H          -2.550    -1.092    -7.864  H    
     27 H          -2.983    -3.207    -6.729  H    
     28 H           3.103    -7.422    -4.938  H    
     29 H           2.692    -5.785    -4.415  H    
@<TRIPOS>BOND
     1    1    2 1
     2    2    3 2
     3    2    4 1
     4    4    5 1
     5    5   17 1
     6    5    6 1
     7    6    7 1
     8    7   15 1
     9    7    8 1
    10    8   13 ar
    11    8    9 ar
    12    9   10 ar
    13   10   11 ar
    14   11   12 ar
    15   12   13 ar
    16   13   14 1
    17   14   15 2
    18   15   16 1
    19   16   17 1
    20    1   18 1
    21    1   19 1
    22    1   20 1
    23    5   21 1
    24    6   22 1
    25    6   23 1
    26    9   24 1
    27   10   25 1
    28   11   26 1
    29   12   27 1
    30   17   28 1
    31   17   29 1
@<TRIPOS>MOLECULE
ZINC00290081
 29 31 0 0 0
SMALL
NO_CHARGES


@<TRIPOS>ATOM
      1 C           2.178    -9.868     1.491  C    
      2 C           1.406   -10.622     0.588  C    
      3 C           0.720    -9.980    -0.460  C    
      4 C           0.789    -8.573    -0.628  C    
      5 C           1.561    -7.831     0.303  C    
      6 C           2.255    -8.470     1.348  C    
      7 N           0.103    -7.957    -1.656  N    
      8 C           0.403    -6.854    -2.328  C    
      9 O           1.490    -6.292    -2.260  O    
     10 C          -0.535    -6.635    -3.276  C    
     11 C          -0.700    -5.608    -4.136  C    
     12 C          -0.027    -4.396    -4.132  C    
     13 C          -0.091    -3.446    -5.150  C    
     14 C           0.671    -2.355    -4.758  C    
     15 C           1.176    -2.658    -3.504  C    
     16 O           0.739    -3.884    -3.134  O    
     17 C          -1.375    -7.682    -3.176  C    
     18 O          -2.379    -7.918    -3.834  O    
     19 N          -0.980    -8.438    -2.186  N    
     20 H           2.684   -10.336     2.248  H    
     21 H           1.351   -11.639     0.692  H    
     22 H           0.179   -10.553    -1.114  H    
     23 H           1.606    -6.813     0.242  H    
     24 H           2.804    -7.918     2.013  H    
     25 H          -1.414    -5.703    -4.826  H    
     26 H          -0.605    -3.532    -6.027  H    
     27 H           0.822    -1.493    -5.284  H    
     28 H           1.774    -2.052    -2.939  H    
     29 H          -1.433    -9.247    -1.895  H    
@<TRIPOS>BOND
     1    1    6 ar
     2    1    2 ar
     3    2    3 ar
     4    3    4 ar
     5    4    5 ar
     6    4    7 1
     7    5    6 ar
     8    7   19 1
     9    7    8 1
    10    8    9 2
    11    8   10 1
    12   10   11 2
    13   10   17 1
    14   11   12 1
    15   12   16 1
    16   12   13 2
    17   13   14 1
    18   14   15 2
    19   15   16 1
    20   17   18 2
    21   17   19 1
    22    1   20 1
    23    2   21 1
    24    3   22 1
    25    5   23 1
    26    6   24 1
    27   11   25 1
    28   13   26 1
    29   14   27 1
    30   15   28 1
    31   19   29 1
@<TRIPOS>MOLECULE
ZINC00294320
 32 33 0 0 0
SMALL
NO_CHARGES


@<TRIPOS>ATOM
      1 C           6.280    -6.636    -0.317  C    
      2 C           4.909    -6.954     0.137  C    
      3 C           4.664    -8.005     1.050  C    
      4 C           3.352    -8.296     1.460  C    
      5 C           2.268    -7.550     0.965  C    
      6 C           2.484    -6.489     0.056  C    
      7 C           3.811    -6.204    -0.347  C    
      8 C           1.349    -5.685    -0.467  C    
      9 C           0.492    -3.370    -0.813  C    
     10 C           0.680    -1.870    -0.481  C    
     11 S           0.225    -1.505     1.229  S    
     12 C           1.367    -2.677     1.991  C    
     13 C           1.126    -4.117     1.479  C    
     14 N           1.386    -4.258     0.004  N    
     15 H           6.339    -6.746    -1.400  H    
     16 H           7.027    -7.291     0.135  H    
     17 H           6.522    -5.607    -0.050  H    
     18 H           5.430    -8.567     1.423  H    
     19 H           3.182    -9.060     2.129  H    
     20 H           1.326    -7.781     1.287  H    
     21 H           3.980    -5.442    -1.004  H    
     22 H           1.421    -5.730    -1.555  H    
     23 H           0.386    -6.132    -0.202  H    
     24 H          -0.559    -3.651    -0.679  H    
     25 H           0.729    -3.490    -1.875  H    
     26 H           1.716    -1.574    -0.653  H    
     27 H           0.042    -1.274    -1.131  H    
     28 H           2.395    -2.372     1.787  H    
     29 H           1.209    -2.646     3.069  H    
     30 H           1.804    -4.768     2.041  H    
     31 H           0.103    -4.429     1.723  H    
     32 H           2.341    -3.924    -0.157  H    
@<TRIPOS>BOND
     1    1    2 1
     2    2    7 ar
     3    2    3 ar
     4    3    4 ar
     5    4    5 ar
     6    5    6 ar
     7    6    7 ar
     8    6    8 1
     9    8   14 1
    10    9   10 1
    11    9   14 1
    12   10   11 1
    13   11   12 1
    14   12   13 1
    15   13   14 1
    16    1   15 1
    17    1   16 1
    18    1   17 1
    19    3   18 1
    20    4   19 1
    21    5   20 1
    22    7   21 1
    23    8   22 1
    24    8   23 1
    25    9   24 1
    26    9   25 1
    27   10   26 1
    28   10   27 1
    29   12   28 1
    30   12   29 1
    31   13   30 1
    32   13   31 1
    33   14   32 1
@<TRIPOS>MOLECULE
ZINC00296206
 34 36 0 0 0
SMALL
NO_CHARGES


@<TRIPOS>ATOM
      1 C           3.536     4.590    -3.041  C    
      2 C           3.955     4.998    -1.600  C    
      3 C           3.484     3.984    -0.634  C    
      4 O           3.938     2.847    -0.697  O    
      5 C           2.671     4.349     0.417  C    
      6 C           1.682     3.514     0.813  C    
      7 N           0.716     3.853     1.606  N    
      8 O          -0.151     3.027     2.043  O    
      9 C           2.831     5.665     0.900  C    
     10 C           3.173     6.658    -0.054  C    
     11 C           3.334     8.004     0.322  C    
     12 C           3.194     8.379     1.667  C    
     13 C           2.920     7.408     2.654  C    
     14 C           2.755     6.051     2.264  C    
     15 O           2.564     5.124     3.265  O    
     16 C           2.477     5.465     4.585  C    
     17 O           2.274     4.500     5.509  O    
     18 C           2.602     6.795     4.951  C    
     19 C           2.819     7.731     4.009  C    
     20 O           3.337     6.301    -1.373  O    
     21 C           5.505     5.168    -1.520  C    
     22 H           2.448     4.501    -3.108  H    
     23 H           3.981     3.633    -3.328  H    
     24 H           3.860     5.348    -3.760  H    
     25 H           1.634     2.601     0.418  H    
     26 H           0.679     4.732     1.920  H    
     27 H          -0.304     2.383     1.312  H    
     28 H           3.561     8.707    -0.381  H    
     29 H           3.314     9.363     1.925  H    
     30 H           2.531     7.052     5.907  H    
     31 H           2.910     8.677     4.296  H    
     32 H           6.015     4.246    -1.806  H    
     33 H           5.810     5.428    -0.504  H    
     34 H           5.836     5.964    -2.188  H    
@<TRIPOS>BOND
     1    1    2 1
     2    2   20 1
     3    2    3 1
     4    2   21 1
     5    3    4 2
     6    3    5 1
     7    5    6 2
     8    5    9 1
     9    6    7 1
    10    7    8 1
    11    9   14 ar
    12    9   10 ar
    13   10   11 ar
    14   10   20 1
    15   11   12 ar
    16   12   13 ar
    17   13   19 1
    18   13   14 ar
    19   14   15 1
    20   15   16 1
    21   16   17 2
    22   16   18 1
    23   18   19 2
    24    1   22 1
    25    1   23 1
    26    1   24 1
    27    6   25 1
    28    7   26 1
    29    8   27 1
    30   11   28 1
    31   12   29 1
    32   18   30 1
    33   19   31 1
    34   21   32 1
    35   21   33 1
    36   21   34 1
@<TRIPOS>MOLECULE
ZINC00296490
 41 42 0 0 0
SMALL
NO_CHARGES


@<TRIPOS>ATOM
      1 C           7.010    -6.541     0.350  C    
      2 C           5.562    -6.134     0.787  C    
      3 C           4.603    -6.957     0.033  C    
      4 C           3.578    -6.482    -0.707  C    
      5 C           3.261    -5.044    -0.733  C    
      6 C           4.548    -4.163    -0.584  C    
      7 C           5.229    -4.575     0.784  C    
      8 C           4.137    -4.285     1.886  C    
      9 O           2.885    -4.957     1.630  O    
     10 C           2.360    -4.737     0.399  C    
     11 C           1.077    -4.301     0.313  C    
     12 C           0.313    -4.086     1.543  C    
     13 C           0.440    -4.030    -0.976  C    
     14 C           6.469    -3.674     1.127  C    
     15 O           6.161    -2.283     1.148  O    
     16 C           5.429    -4.223    -1.869  C    
     17 C           2.739    -7.428    -1.434  C    
     18 H           7.244    -6.216    -0.664  H    
     19 H           7.145    -7.627     0.390  H    
     20 H           7.755    -6.110     1.025  H    
     21 H           5.495    -6.474     1.820  H    
     22 H           4.720    -7.948     0.071  H    
     23 H           2.812    -4.795    -1.697  H    
     24 H           4.220    -3.117    -0.517  H    
     25 H           4.484    -4.611     2.870  H    
     26 H           3.927    -3.214     1.967  H    
     27 H           0.244    -5.020     2.105  H    
     28 H          -0.703    -3.727     1.368  H    
     29 H           0.822    -3.350     2.168  H    
     30 H           1.005    -3.266    -1.512  H    
     31 H          -0.587    -3.673    -0.883  H    
     32 H           0.420    -4.938    -1.580  H    
     33 H           6.870    -3.942     2.109  H    
     34 H           7.267    -3.802     0.397  H    
     35 H           5.927    -2.065     0.226  H    
     36 H           5.731    -5.243    -2.106  H    
     37 H           6.322    -3.612    -1.755  H    
     38 H           4.867    -3.838    -2.720  H    
     39 H           3.355    -7.992    -2.139  H    
     40 H           1.943    -6.939    -1.998  H    
     41 H           2.278    -8.130    -0.734  H    
@<TRIPOS>BOND
     1    1    2 1
     2    2    7 1
     3    2    3 1
     4    3    4 2
     5    4    5 1
     6    4   17 1
     7    5   10 1
     8    5    6 1
     9    6    7 1
    10    6   16 1
    11    7    8 1
    12    7   14 1
    13    8    9 1
    14    9   10 1
    15   10   11 2
    16   11   12 1
    17   11   13 1
    18   14   15 1
    19    1   18 1
    20    1   19 1
    21    1   20 1
    22    2   21 1
    23    3   22 1
    24    5   23 1
    25    6   24 1
    26    8   25 1
    27    8   26 1
    28   12   27 1
    29   12   28 1
    30   12   29 1
    31   13   30 1
    32   13   31 1
    33   13   32 1
    34   14   33 1
    35   14   34 1
    36   15   35 1
    37   16   36 1
    38   16   37 1
    39   16   38 1
    40   17   39 1
    41   17   40 1
    42   17   41 1
@<TRIPOS>MOLECULE
ZINC00313435
 41 43 0 0 0
SMALL
NO_CHARGES


@<TRIPOS>ATOM
      1 C           4.924   -10.842    -0.804  C    
      2 C           4.515    -9.757     0.067  C    
      3 C           3.219    -9.617     0.525  C    
      4 C           2.902    -8.580     1.340  C    
      5 N           3.862    -7.702     1.690  N    
      6 C           5.121    -7.840     1.241  C    
      7 N           5.446    -8.877     0.425  N    
      8 C           5.872    -6.806     1.758  C    
      9 C           4.996    -6.048     2.535  C    
     10 N           3.788    -6.650     2.450  N    
     11 C           5.263    -4.871     3.286  C    
     12 C           4.247    -4.266     4.062  C    
     13 C           4.493    -3.102     4.811  C    
     14 C           5.765    -2.470     4.831  C    
     15 C           6.775    -3.089     4.046  C    
     16 C           6.536    -4.254     3.296  C    
     17 C           6.072    -1.212     5.626  C    
     18 C           4.859    -0.646     6.445  C    
     19 C           7.211    -1.507     6.659  C    
     20 C           6.525    -0.073     4.652  C    
     21 N           1.696    -8.437     1.773  N    
     22 H           5.317   -10.433    -1.737  H    
     23 H           4.101   -11.518    -1.050  H    
     24 H           5.708   -11.425    -0.318  H    
     25 H           2.522   -10.273     0.258  H    
     26 H           6.870    -6.650     1.592  H    
     27 H           3.308    -4.669     4.093  H    
     28 H           3.710    -2.727     5.344  H    
     29 H           7.714    -2.695     4.008  H    
     30 H           7.308    -4.641     2.753  H    
     31 H           4.030    -0.383     5.784  H    
     32 H           5.137     0.256     6.996  H    
     33 H           4.505    -1.379     7.175  H    
     34 H           6.922    -2.327     7.321  H    
     35 H           7.419    -0.630     7.276  H    
     36 H           8.144    -1.783     6.166  H    
     37 H           7.448    -0.329     4.130  H    
     38 H           6.709     0.858     5.194  H    
     39 H           5.753     0.117     3.902  H    
     40 H           1.480    -7.720     2.332  H    
     41 H           1.027    -9.047     1.528  H    
@<TRIPOS>BOND
     1    1    2 1
     2    2    7 2
     3    2    3 1
     4    3    4 2
     5    4    5 1
     6    4   21 1
     7    5   10 1
     8    5    6 1
     9    6    7 1
    10    6    8 2
    11    8    9 1
    12    9   10 2
    13    9   11 1
    14   11   16 ar
    15   11   12 ar
    16   12   13 ar
    17   13   14 ar
    18   14   15 ar
    19   14   17 1
    20   15   16 ar
    21   17   18 1
    22   17   19 1
    23   17   20 1
    24    1   22 1
    25    1   23 1
    26    1   24 1
    27    3   25 1
    28    8   26 1
    29   12   27 1
    30   13   28 1
    31   15   29 1
    32   16   30 1
    33   18   31 1
    34   18   32 1
    35   18   33 1
    36   19   34 1
    37   19   35 1
    38   19   36 1
    39   20   37 1
    40   20   38 1
    41   20   39 1
    42   21   40 1
    43   21   41 1
@<TRIPOS>MOLECULE
ZINC00333766
 26 27 0 0 0
SMALL
NO_CHARGES


@<TRIPOS>ATOM
      1 C           3.385    -9.165    -2.054  C    
      2 C           4.415    -8.262    -1.343  C    
      3 C           3.751    -7.293    -0.430  C    
      4 C           3.522    -7.623     0.927  C    
      5 C           2.868    -6.724     1.790  C    
      6 C           2.431    -5.478     1.305  C    
      7 C           2.645    -5.127    -0.051  C    
      8 C           3.307    -6.038    -0.907  C    
      9 C           2.181    -3.881    -0.477  C    
     10 C           1.572    -3.005     0.369  C    
     11 C           1.393    -3.395     1.689  C    
     12 O           0.867    -2.677     2.531  O    
     13 N           1.805    -4.581     2.122  N    
     14 C           1.140    -1.776    -0.069  C    
     15 O           1.449    -1.289    -1.154  O    
     16 H           2.808    -9.737    -1.324  H    
     17 H           3.902    -9.867    -2.712  H    
     18 H           2.699    -8.566    -2.658  H    
     19 H           5.114    -8.891    -0.785  H    
     20 H           5.003    -7.727    -2.095  H    
     21 H           3.825    -8.526     1.296  H    
     22 H           2.709    -6.982     2.767  H    
     23 H           3.464    -5.785    -1.884  H    
     24 H           2.307    -3.638    -1.433  H    
     25 H           1.664    -4.818     3.054  H    
     26 H           0.573    -1.205     0.516  H    
@<TRIPOS>BOND
     1    1    2 1
     2    2    3 1
     3    3    8 ar
     4    3    4 ar
     5    4    5 ar
     6    5    6 ar
     7    6   13 1
     8    6    7 ar
     9    7    8 ar
    10    7    9 1
    11    9   10 2
    12   10   11 1
    13   10   14 1
    14   11   12 2
    15   11   13 1
    16   14   15 2
    17    1   16 1
    18    1   17 1
    19    1   18 1
    20    2   19 1
    21    2   20 1
    22    4   21 1
    23    5   22 1
    24    8   23 1
    25    9   24 1
    26   13   25 1
    27   14   26 1
@<TRIPOS>MOLECULE
ZINC00346316
 43 46 0 0 0
SMALL
NO_CHARGES


@<TRIPOS>ATOM
      1 C           4.655    -8.187    -0.298  C    
      2 C           5.228    -6.909     0.380  C    
      3 C           6.540    -6.437    -0.335  C    
      4 C           7.101    -5.145     0.353  C    
      5 C           7.353    -5.460     1.867  C    
      6 C           5.573    -7.167     1.887  C    
      7 C           5.009    -4.824     2.470  C    
      8 C           4.191    -5.732     0.326  C    
      9 C           5.987    -4.050     0.294  C    
     10 C           5.260    -3.654     3.384  C    
     11 C           5.067    -2.312     2.957  C    
     12 C           5.330    -1.221     3.804  C    
     13 C           5.750    -1.444     5.124  C    
     14 C           5.872    -2.763     5.601  C    
     15 C           5.610    -3.856     4.749  C    
     16 O           5.687    -5.093     5.305  O    
     17 Br          6.108     0.003     6.238  Br   
     18 C           8.405    -4.662    -0.346  C    
     19 N           6.076    -5.899     2.520  N    
     20 N           4.751    -4.521     1.012  N    
     21 H           5.383    -8.998    -0.269  H    
     22 H           4.404    -7.988    -1.342  H    
     23 H           3.747    -8.520     0.213  H    
     24 H           7.290    -7.234    -0.299  H    
     25 H           6.329    -6.231    -1.391  H    
     26 H           8.109    -6.246     1.967  H    
     27 H           7.744    -4.580     2.383  H    
     28 H           4.691    -7.521     2.427  H    
     29 H           6.329    -7.951     1.976  H    
     30 H           4.086    -5.243     2.891  H    
     31 H           3.948    -5.491    -0.714  H    
     32 H           3.254    -6.030     0.806  H    
     33 H           6.368    -3.129     0.738  H    
     34 H           5.744    -3.812    -0.748  H    
     35 H           4.717    -2.105     2.015  H    
     36 H           5.199    -0.263     3.458  H    
     37 H           6.143    -2.920     6.579  H    
     38 H           5.280    -5.708     4.661  H    
     39 H           9.170    -5.439    -0.312  H    
     40 H           8.798    -3.771     0.149  H    
     41 H           8.213    -4.415    -1.392  H    
     42 H           6.282    -6.103     3.501  H    
     43 H           4.050    -3.782     0.957  H    
@<TRIPOS>BOND
     1    1    2 1
     2    2    6 1
     3    2    8 1
     4    2    3 1
     5    3    4 1
     6    4    9 1
     7    4    5 1
     8    4   18 1
     9    5   19 1
    10    6   19 1
    11    7   10 1
    12    7   19 1
    13    7   20 1
    14    8   20 1
    15    9   20 1
    16   10   15 ar
    17   10   11 ar
    18   11   12 ar
    19   12   13 ar
    20   13   14 ar
    21   13   17 1
    22   14   15 ar
    23   15   16 1
    24    1   21 1
    25    1   22 1
    26    1   23 1
    27    3   24 1
    28    3   25 1
    29    5   26 1
    30    5   27 1
    31    6   28 1
    32    6   29 1
    33    7   30 1
    34    8   31 1
    35    8   32 1
    36    9   33 1
    37    9   34 1
    38   11   35 1
    39   12   36 1
    40   14   37 1
    41   16   38 1
    42   18   39 1
    43   18   40 1
    44   18   41 1
    45   19   42 1
    46   20   43 1
@<TRIPOS>MOLECULE
ZINC00387011
 28 30 0 0 0
SMALL
NO_CHARGES


@<TRIPOS>ATOM
      1 C           4.454    -8.943    -0.313  C    
      2 C           5.003    -8.324     0.824  C    
      3 C           4.941    -6.926     0.966  C    
      4 C           4.328    -6.135    -0.031  C    
      5 C           4.242    -4.731     0.084  C    
      6 N           3.641    -3.969    -0.884  N    
      7 C           3.114    -4.567    -1.998  C    
      8 C           3.169    -5.961    -2.172  C    
      9 C           3.775    -6.760    -1.183  C    
     10 C           3.842    -8.166    -1.312  C    
     11 C           3.534    -2.537    -0.713  C    
     12 C           2.251    -2.179    -0.079  C    
     13 C           2.027    -1.889     1.274  C    
     14 C           0.687    -1.613     1.601  C    
     15 C          -0.194    -1.674     0.519  C    
     16 S           0.727    -2.087    -0.874  S    
     17 H           4.500    -9.960    -0.412  H    
     18 H           5.450    -8.892     1.547  H    
     19 H           5.348    -6.493     1.798  H    
     20 H           4.629    -4.281     0.918  H    
     21 H           2.662    -4.007    -2.726  H    
     22 H           2.767    -6.381    -3.013  H    
     23 H           3.449    -8.633    -2.132  H    
     24 H           4.354    -2.153    -0.100  H    
     25 H           3.610    -2.017    -1.671  H    
     26 H           2.770    -1.896     1.974  H    
     27 H           0.381    -1.392     2.551  H    
     28 H          -1.202    -1.511     0.548  H    
@<TRIPOS>BOND
     1    1   10 ar
     2    1    2 ar
     3    2    3 ar
     4    3    4 ar
     5    4    9 ar
     6    4    5 ar
     7    5    6 ar
     8    6    7 ar
     9    6   11 1
    10    7    8 ar
    11    8    9 ar
    12    9   10 ar
    13   11   12 1
    14   12   16 1
    15   12   13 2
    16   13   14 1
    17   14   15 2
    18   15   16 1
    19    1   17 1
    20    2   18 1
    21    3   19 1
    22    5   20 1
    23    7   21 1
    24    8   22 1
    25   10   23 1
    26   11   24 1
    27   11   25 1
    28   13   26 1
    29   14   27 1
    30   15   28 1
@<TRIPOS>MOLECULE
ZINC00387591
 35 38 0 0 0
SMALL
NO_CHARGES


@<TRIPOS>ATOM
      1 C           3.841     7.462     9.608  C    
      2 O           2.564     7.124     9.036  O    
      3 C           2.473     6.639     7.746  C    
      4 C           3.545     6.127     6.962  C    
      5 C           3.327     5.637     5.658  C    
      6 C           2.026     5.634     5.128  C    
      7 C           0.972     6.128     5.905  C    
      8 C           1.170     6.634     7.198  C    
      9 S          -0.446     5.947     4.961  S    
     10 C           0.347     5.238     3.602  C    
     11 N           1.669     5.166     3.904  N    
     12 N          -0.192     4.811     2.431  N    
     13 C          -1.485     4.800     2.019  C    
     14 C          -1.498     4.300     0.718  C    
     15 C          -0.185     3.980     0.425  C    
     16 N           0.560     4.316     1.488  N    
     17 C          -2.699     4.154    -0.135  C    
     18 C          -3.900     4.961     0.433  C    
     19 C          -4.029     4.784     1.969  C    
     20 C          -2.732     5.213     2.714  C    
     21 H           4.439     6.555     9.772  H    
     22 H           3.661     7.930    10.577  H    
     23 H           4.387     8.165     8.975  H    
     24 H           4.495     6.100     7.333  H    
     25 H           4.106     5.276     5.107  H    
     26 H           0.375     6.984     7.737  H    
     27 H           0.161     3.584    -0.449  H    
     28 H          -2.476     4.503    -1.142  H    
     29 H          -2.958     3.093    -0.191  H    
     30 H          -3.758     6.021     0.210  H    
     31 H          -4.825     4.635    -0.053  H    
     32 H          -4.876     5.372     2.335  H    
     33 H          -4.235     3.732     2.184  H    
     34 H          -2.757     4.759     3.707  H    
     35 H          -2.722     6.302     2.830  H    
@<TRIPOS>BOND
     1    1    2 1
     2    2    3 1
     3    3    8 ar
     4    3    4 ar
     5    4    5 ar
     6    5    6 ar
     7    6   11 1
     8    6    7 ar
     9    7    8 ar
    10    7    9 1
    11    9   10 1
    12   10   11 2
    13   10   12 1
    14   12   16 1
    15   12   13 1
    16   13   20 1
    17   13   14 2
    18   14   15 1
    19   14   17 1
    20   15   16 2
    21   17   18 1
    22   18   19 1
    23   19   20 1
    24    1   21 1
    25    1   22 1
    26    1   23 1
    27    4   24 1
    28    5   25 1
    29    8   26 1
    30   15   27 1
    31   17   28 1
    32   17   29 1
    33   18   30 1
    34   18   31 1
    35   19   32 1
    36   19   33 1
    37   20   34 1
    38   20   35 1
@<TRIPOS>MOLECULE
ZINC00399779
 27 28 0 0 0
SMALL
NO_CHARGES


@<TRIPOS>ATOM
      1 C           1.548    -9.684    -0.176  C    
      2 S           2.685    -8.301     0.030  S    
      3 O           3.322    -8.396     1.485  O    
      4 O           3.831    -8.438    -1.065  O    
      5 C           1.788    -6.740    -0.176  C    
      6 C           2.489    -5.419    -0.044  C    
      7 C           3.879    -5.353     0.226  C    
      8 C           4.547    -4.128     0.355  C    
      9 C           3.843    -2.926     0.217  C    
     10 C           2.460    -2.941    -0.054  C    
     11 C           1.769    -4.188    -0.189  C    
     12 C           0.376    -4.136    -0.464  C    
     13 C          -0.304    -2.913    -0.598  C    
     14 C           0.390    -1.703    -0.460  C    
     15 C           1.767    -1.715    -0.190  C    
     16 H           2.072   -10.620     0.011  H    
     17 H           1.158    -9.687    -1.192  H    
     18 H           0.723    -9.588     0.528  H    
     19 H           1.342    -6.785    -1.171  H    
     20 H           0.983    -6.767     0.560  H    
     21 H           4.439    -6.198     0.335  H    
     22 H           5.552    -4.109     0.551  H    
     23 H           4.350    -2.041     0.317  H    
     24 H          -0.175    -4.988    -0.574  H    
     25 H          -1.307    -2.903    -0.797  H    
     26 H          -0.105    -0.813    -0.558  H    
     27 H           2.257    -0.821    -0.092  H    
@<TRIPOS>BOND
     1    1    2 1
     2    2    3 2
     3    2    4 2
     4    2    5 1
     5    5    6 1
     6    6   11 ar
     7    6    7 ar
     8    7    8 ar
     9    8    9 ar
    10    9   10 ar
    11   10   15 ar
    12   10   11 ar
    13   11   12 ar
    14   12   13 ar
    15   13   14 ar
    16   14   15 ar
    17    1   16 1
    18    1   17 1
    19    1   18 1
    20    5   19 1
    21    5   20 1
    22    7   21 1
    23    8   22 1
    24    9   23 1
    25   12   24 1
    26   13   25 1
    27   14   26 1
    28   15   27 1
@<TRIPOS>MOLECULE
ZINC00402831
 29 29 0 0 0
SMALL
NO_CHARGES


@<TRIPOS>ATOM
      1 C           3.294    -8.765    -0.097  C    
      2 C           3.226    -7.664    -1.180  C    
      3 C           1.911    -7.608    -1.818  C    
      4 O           1.486    -8.567    -2.448  O    
      5 N           1.155    -6.524    -1.742  N    
      6 C           1.489    -5.311    -1.043  C    
      7 C           2.859    -5.333    -0.516  C    
      8 O           3.341    -4.343     0.013  O    
      9 N           3.620    -6.413    -0.597  N    
     10 C           0.409    -5.023     0.062  C    
     11 C          -0.240    -3.601     0.029  C    
     12 C          -1.434    -3.519     1.020  C    
     13 C           0.775    -2.460     0.319  C    
     14 H           4.290    -8.781     0.354  H    
     15 H           3.102    -9.743    -0.536  H    
     16 H           2.556    -8.574     0.690  H    
     17 H           3.965    -7.896    -1.952  H    
     18 H           0.298    -6.549    -2.194  H    
     19 H           1.451    -4.531    -1.809  H    
     20 H           4.519    -6.360    -0.235  H    
     21 H          -0.407    -5.749    -0.052  H    
     22 H           0.824    -5.205     1.060  H    
     23 H          -0.651    -3.433    -0.975  H    
     24 H          -2.175    -4.285     0.785  H    
     25 H          -1.922    -2.545     0.947  H    
     26 H          -1.091    -3.665     2.048  H    
     27 H           1.277    -2.626     1.275  H    
     28 H           0.264    -1.495     0.359  H    
     29 H           1.523    -2.400    -0.471  H    
@<TRIPOS>BOND
     1    1    2 1
     2    2    9 1
     3    2    3 1
     4    3    4 2
     5    3    5 1
     6    5    6 1
     7    6    7 1
     8    6   10 1
     9    7    8 2
    10    7    9 1
    11   10   11 1
    12   11   12 1
    13   11   13 1
    14    1   14 1
    15    1   15 1
    16    1   16 1
    17    2   17 1
    18    5   18 1
    19    6   19 1
    20    9   20 1
    21   10   21 1
    22   10   22 1
    23   11   23 1
    24   12   24 1
    25   12   25 1
    26   12   26 1
    27   13   27 1
    28   13   28 1
    29   13   29 1
@<TRIPOS>MOLECULE
ZINC00421217
 30 32 0 0 0
SMALL
NO_CHARGES


@<TRIPOS>ATOM
      1 C          -5.793     8.327    -3.234  C    
      2 C          -5.826     8.423    -1.697  C    
      3 S          -5.793     6.770    -0.953  S    
      4 C          -5.770     7.140     0.750  C    
      5 N          -5.896     8.399     1.205  N    
      6 N          -5.829     8.406     2.488  N    
      7 C          -5.655     7.141     2.885  C    
      8 N          -5.622     6.314     1.817  N    
      9 C          -5.462     4.945     2.011  C    
     10 C          -5.467     4.009     0.946  C    
     11 C          -5.309     2.633     1.176  C    
     12 C          -5.142     2.159     2.484  C    
     13 C          -5.141     3.061     3.559  C    
     14 C          -5.304     4.459     3.357  C    
     15 C          -5.324     5.384     4.439  C    
     16 C          -5.512     6.700     4.184  C    
     17 C          -5.148     4.960     5.829  C    
     18 H          -4.878     7.827    -3.563  H    
     19 H          -5.818     9.330    -3.673  H    
     20 H          -6.659     7.766    -3.598  H    
     21 H          -4.960     8.996    -1.358  H    
     22 H          -6.736     8.946    -1.391  H    
     23 H          -5.593     4.305    -0.020  H    
     24 H          -5.317     1.972     0.390  H    
     25 H          -5.031     1.153     2.652  H    
     26 H          -5.024     2.667     4.496  H    
     27 H          -5.543     7.377     4.916  H    
     28 H          -5.942     4.264     6.105  H    
     29 H          -5.175     5.786     6.544  H    
     30 H          -4.184     4.462     5.945  H    
@<TRIPOS>BOND
     1    1    2 1
     2    2    3 1
     3    3    4 1
     4    4    8 1
     5    4    5 2
     6    5    6 1
     7    6    7 2
     8    7   16 1
     9    7    8 1
    10    8    9 1
    11    9   14 ar
    12    9   10 ar
    13   10   11 ar
    14   11   12 ar
    15   12   13 ar
    16   13   14 ar
    17   14   15 1
    18   15   16 2
    19   15   17 1
    20    1   18 1
    21    1   19 1
    22    1   20 1
    23    2   21 1
    24    2   22 1
    25   10   23 1
    26   11   24 1
    27   12   25 1
    28   13   26 1
    29   16   27 1
    30   17   28 1
    31   17   29 1
    32   17   30 1
@<TRIPOS>MOLECULE
ZINC00424040
 31 33 0 0 0
SMALL
NO_CHARGES


@<TRIPOS>ATOM
      1 C          -1.511     8.508     6.452  C    
      2 C          -2.354     7.575     7.083  C    
      3 C          -2.873     6.484     6.357  C    
      4 C          -2.553     6.318     4.985  C    
      5 C          -1.694     7.260     4.365  C    
      6 C          -1.180     8.349     5.095  C    
      7 F          -1.372     7.149     3.102  F    
      8 N          -3.065     5.262     4.259  N    
      9 C          -4.463     5.158     3.949  C    
     10 S          -4.698     3.701     2.905  S    
     11 C          -3.007     3.164     3.197  C    
     12 C          -2.324     4.234     3.863  C    
     13 O          -1.127     4.123     4.106  O    
     14 C          -5.023     6.367     3.271  C    
     15 C          -4.494     6.824     2.040  C    
     16 C          -5.001     7.983     1.421  C    
     17 C          -6.045     8.706     2.028  C    
     18 C          -6.578     8.268     3.253  C    
     19 C          -6.071     7.109     3.869  C    
     20 F          -6.514     9.782     1.456  F    
     21 F          -3.632     5.624     6.986  F    
     22 H          -1.137     9.300     6.980  H    
     23 H          -2.584     7.691     8.073  H    
     24 H          -0.566     9.030     4.642  H    
     25 H          -5.005     4.952     4.876  H    
     26 H          -3.011     2.274     3.827  H    
     27 H          -2.533     2.934     2.241  H    
     28 H          -3.730     6.316     1.586  H    
     29 H          -4.606     8.297     0.531  H    
     30 H          -7.334     8.792     3.702  H    
     31 H          -6.471     6.815     4.763  H    
@<TRIPOS>BOND
     1    1    6 ar
     2    1    2 ar
     3    2    3 ar
     4    3    4 ar
     5    3   21 1
     6    4    5 ar
     7    4    8 1
     8    5    6 ar
     9    5    7 1
    10    8   12 1
    11    8    9 1
    12    9   10 1
    13    9   14 1
    14   10   11 1
    15   11   12 1
    16   12   13 2
    17   14   19 ar
    18   14   15 ar
    19   15   16 ar
    20   16   17 ar
    21   17   18 ar
    22   17   20 1
    23   18   19 ar
    24    1   22 1
    25    2   23 1
    26    6   24 1
    27    9   25 1
    28   11   26 1
    29   11   27 1
    30   15   28 1
    31   16   29 1
    32   18   30 1
    33   19   31 1
@<TRIPOS>MOLECULE
ZINC00424179
 34 37 0 0 0
SMALL
NO_CHARGES


@<TRIPOS>ATOM
      1 C           6.297    -9.782    -0.528  C    
      2 C           4.946   -10.070    -0.788  C    
      3 C           3.939    -9.219    -0.302  C    
      4 C           4.284    -8.078     0.449  C    
      5 C           5.641    -7.776     0.724  C    
      6 C           6.644    -8.642     0.222  C    
      7 C           5.889    -6.621     1.483  C    
      8 O           7.060    -6.344     1.729  O    
      9 N           4.880    -5.831     1.927  N    
     10 C           3.602    -6.171     1.636  C    
     11 O           2.631    -5.519     1.998  O    
     12 N           3.313    -7.252     0.923  N    
     13 C           5.149    -4.626     2.708  C    
     14 C           5.198    -4.910     4.168  C    
     15 C           4.047    -4.752     4.985  C    
     16 C           4.099    -5.021     6.369  C    
     17 C           5.311    -5.445     6.937  C    
     18 C           6.443    -5.599     6.153  C    
     19 C           6.406    -5.338     4.774  C    
     20 O           7.500    -6.017     6.871  O    
     21 C           6.977    -5.953     8.212  C    
     22 O           5.550    -5.756     8.223  O    
     23 H           7.027   -10.402    -0.883  H    
     24 H           4.697   -10.898    -1.332  H    
     25 H           2.958    -9.435    -0.495  H    
     26 H           7.634    -8.456     0.397  H    
     27 H           2.384    -7.459     0.732  H    
     28 H           6.088    -4.157     2.398  H    
     29 H           4.401    -3.852     2.511  H    
     30 H           3.163    -4.438     4.579  H    
     31 H           3.268    -4.909     6.952  H    
     32 H           7.261    -5.451     4.225  H    
     33 H           7.219    -6.879     8.736  H    
     34 H           7.456    -5.124     8.740  H    
@<TRIPOS>BOND
     1    1    6 ar
     2    1    2 ar
     3    2    3 ar
     4    3    4 ar
     5    4   12 1
     6    4    5 ar
     7    5    6 ar
     8    5    7 1
     9    7    8 2
    10    7    9 1
    11    9   10 1
    12    9   13 1
    13   10   11 2
    14   10   12 1
    15   13   14 1
    16   14   19 ar
    17   14   15 ar
    18   15   16 ar
    19   16   17 ar
    20   17   22 1
    21   17   18 ar
    22   18   19 ar
    23   18   20 1
    24   20   21 1
    25   21   22 1
    26    1   23 1
    27    2   24 1
    28    3   25 1
    29    6   26 1
    30   12   27 1
    31   13   28 1
    32   13   29 1
    33   15   30 1
    34   16   31 1
    35   19   32 1
    36   21   33 1
    37   21   34 1
@<TRIPOS>MOLECULE
ZINC00430242
 27 29 0 0 0
SMALL
NO_CHARGES


@<TRIPOS>ATOM
      1 C          -0.049    -0.418     4.255  C    
      2 C          -0.274    -1.681     4.831  C    
      3 C           0.505    -2.102     5.922  C    
      4 C           1.515    -1.265     6.446  C    
      5 C           1.737     0.027     5.888  C    
      6 C           0.945     0.429     4.780  C    
      7 C           2.738     0.868     6.384  C    
      8 C           2.604     2.184     6.627  C    
      9 C           3.565     3.013     7.129  C    
     10 O           4.850     2.709     7.422  O    
     11 O           3.000     4.221     7.312  O    
     12 C           1.742     4.082     6.927  C    
     13 N           1.525     2.884     6.526  N    
     14 C           0.793     5.076     6.981  C    
     15 C           0.982     6.383     7.428  C    
     16 C          -0.243     7.023     7.334  C    
     17 C          -1.145     6.098     6.825  C    
     18 O          -0.505     4.923     6.617  O    
     19 Cl          2.393    -1.857     7.779  Cl   
     20 H          -0.608    -0.116     3.452  H    
     21 H          -1.002    -2.293     4.455  H    
     22 H           0.330    -3.022     6.338  H    
     23 H           1.106     1.333     4.324  H    
     24 H           3.604     0.446     6.630  H    
     25 H           1.854     6.790     7.771  H    
     26 H          -0.442     7.990     7.594  H    
     27 H          -2.134     6.271     6.642  H    
@<TRIPOS>BOND
     1    1    6 ar
     2    1    2 ar
     3    2    3 ar
     4    3    4 ar
     5    4    5 ar
     6    4   19 1
     7    5    6 ar
     8    5    7 1
     9    7    8 2
    10    8   13 1
    11    8    9 1
    12    9   10 2
    13    9   11 1
    14   11   12 1
    15   12   13 2
    16   12   14 1
    17   14   18 1
    18   14   15 2
    19   15   16 1
    20   16   17 2
    21   17   18 1
    22    1   20 1
    23    2   21 1
    24    3   22 1
    25    6   23 1
    26    7   24 1
    27   15   25 1
    28   16   26 1
    29   17   27 1
@<TRIPOS>MOLECULE
ZINC00439337
 43 46 0 0 0
SMALL
NO_CHARGES


@<TRIPOS>ATOM
      1 C           8.363    -9.142    -0.731  C    
      2 C           6.602    -7.401    -0.848  C    
      3 C           5.077    -7.132    -0.984  C    
      4 N           4.348    -7.876     0.024  N    
      5 C           4.600    -9.304     0.040  C    
      6 C           6.113    -9.591     0.203  C    
      7 C           3.644    -7.256     1.026  C    
      8 C           2.810    -6.108     0.897  C    
      9 C           2.363    -5.571    -0.337  C    
     10 C           1.525    -4.440    -0.375  C    
     11 C           1.100    -3.837     0.822  C    
     12 C           1.486    -4.379     2.058  C    
     13 C           2.310    -5.519     2.095  C    
     14 N           2.595    -6.079     3.295  N    
     15 C           3.337    -7.206     3.427  C    
     16 N           3.835    -7.747     2.284  N    
     17 C           3.610    -7.776     4.704  C    
     18 C           3.123    -7.190     5.900  C    
     19 C           3.409    -7.756     7.157  C    
     20 C           4.190    -8.923     7.215  C    
     21 N           4.648    -9.480     6.067  N    
     22 C           4.389    -8.955     4.841  C    
     23 N           6.903    -8.865    -0.837  N    
     24 H           8.910    -8.633    -1.530  H    
     25 H           8.550   -10.215    -0.830  H    
     26 H           8.758    -8.805     0.233  H    
     27 H           7.113    -6.926    -1.693  H    
     28 H           6.960    -6.932     0.078  H    
     29 H           4.944    -6.051    -0.898  H    
     30 H           4.737    -7.439    -1.979  H    
     31 H           4.056    -9.823     0.833  H    
     32 H           4.259    -9.733    -0.908  H    
     33 H           6.429    -9.291     1.209  H    
     34 H           6.275   -10.667     0.099  H    
     35 H           2.606    -6.017    -1.224  H    
     36 H           1.213    -4.066    -1.272  H    
     37 H           0.485    -3.019     0.789  H    
     38 H           1.140    -3.956     2.924  H    
     39 H           2.552    -6.339     5.873  H    
     40 H           3.059    -7.326     8.015  H    
     41 H           4.411    -9.356     8.115  H    
     42 H           4.771    -9.437     4.025  H    
     43 H           6.607    -9.230    -1.747  H    
@<TRIPOS>BOND
     1    1   23 1
     2    2    3 1
     3    2   23 1
     4    3    4 1
     5    4    5 1
     6    4    7 1
     7    5    6 1
     8    6   23 1
     9    7   16 ar
    10    7    8 ar
    11    8   13 ar
    12    8    9 ar
    13    9   10 ar
    14   10   11 ar
    15   11   12 ar
    16   12   13 ar
    17   13   14 ar
    18   14   15 ar
    19   15   16 ar
    20   15   17 1
    21   17   22 ar
    22   17   18 ar
    23   18   19 ar
    24   19   20 ar
    25   20   21 ar
    26   21   22 ar
    27    1   24 1
    28    1   25 1
    29    1   26 1
    30    2   27 1
    31    2   28 1
    32    3   29 1
    33    3   30 1
    34    5   31 1
    35    5   32 1
    36    6   33 1
    37    6   34 1
    38    9   35 1
    39   10   36 1
    40   11   37 1
    41   12   38 1
    42   18   39 1
    43   19   40 1
    44   20   41 1
    45   22   42 1
    46   23   43 1
@<TRIPOS>MOLECULE
ZINC00450186
 34 35 0 0 0
SMALL
NO_CHARGES


@<TRIPOS>ATOM
      1 C           9.551     3.913     3.587  C    
      2 C           8.597     3.372     2.580  C    
      3 C           7.197     3.383     2.657  C    
      4 C           6.692     2.806     1.487  C    
      5 C           7.814     2.443     0.728  C    
      6 N           8.942     2.795     1.407  N    
      7 C          10.309     2.605     0.979  C    
      8 C           7.779     1.808    -0.624  C    
      9 C           5.350     2.589     1.117  C    
     10 C           4.234     3.261     1.481  C    
     11 C           4.321     4.442     2.011  C    
     12 N           4.402     5.488     2.474  N    
     13 C           2.968     2.913     0.950  C    
     14 C           2.725     2.664    -0.424  C    
     15 C           1.457     2.216    -0.861  C    
     16 C           0.432     2.006     0.075  C    
     17 C           0.661     2.224     1.442  C    
     18 C           1.926     2.672     1.874  C    
     19 F          -0.751     1.598    -0.326  F    
     20 H          10.219     3.125     3.942  H    
     21 H           9.028     4.334     4.444  H    
     22 H          10.165     4.700     3.141  H    
     23 H           6.655     3.735     3.451  H    
     24 H          10.805     3.556     0.853  H    
     25 H          10.459     2.120     0.033  H    
     26 H          10.846     1.963     1.663  H    
     27 H           7.318     0.835    -0.577  H    
     28 H           8.730     1.606    -1.081  H    
     29 H           7.296     2.448    -1.346  H    
     30 H           5.196     1.778     0.563  H    
     31 H           3.468     2.795    -1.118  H    
     32 H           1.288     2.043    -1.855  H    
     33 H          -0.080     2.061     2.126  H    
     34 H           2.091     2.791     2.878  H    
@<TRIPOS>BOND
     1    1    2 1
     2    2    6 1
     3    2    3 2
     4    3    4 1
     5    4    5 2
     6    4    9 1
     7    5    6 1
     8    5    8 1
     9    6    7 1
    10    9   10 2
    11   10   11 1
    12   10   13 1
    13   11   12 3
    14   13   18 ar
    15   13   14 ar
    16   14   15 ar
    17   15   16 ar
    18   16   17 ar
    19   16   19 1
    20   17   18 ar
    21    1   20 1
    22    1   21 1
    23    1   22 1
    24    3   23 1
    25    7   24 1
    26    7   25 1
    27    7   26 1
    28    8   27 1
    29    8   28 1
    30    8   29 1
    31    9   30 1
    32   14   31 1
    33   15   32 1
    34   17   33 1
    35   18   34 1
@<TRIPOS>MOLECULE
ZINC00477015
 33 36 0 0 0
SMALL
NO_CHARGES


@<TRIPOS>ATOM
      1 C           5.889   -10.187    -0.405  C    
      2 C           5.192   -10.228    -1.626  C    
      3 C           3.970    -9.541    -1.763  C    
      4 C           3.454    -8.809    -0.678  C    
      5 C           4.141    -8.760     0.565  C    
      6 C           5.370    -9.458     0.683  C    
      7 C           3.558    -8.025     1.619  C    
      8 C           2.364    -7.411     1.461  C    
      9 C           1.708    -7.450     0.242  C    
     10 O           0.529    -6.809     0.070  O    
     11 O           2.259    -8.145    -0.798  O    
     12 O           4.173    -8.026     2.822  O    
     13 C           4.577    -6.834     3.314  C    
     14 C           5.537    -6.120     2.679  C    
     15 C           5.952    -4.900     3.183  C    
     16 O           6.880    -4.161     2.531  O    
     17 O           5.415    -4.431     4.350  O    
     18 C           4.469    -5.138     5.051  C    
     19 C           4.022    -6.385     4.532  C    
     20 C           3.049    -7.113     5.266  C    
     21 C           2.547    -6.612     6.484  C    
     22 C           3.006    -5.380     6.985  C    
     23 C           3.966    -4.638     6.269  C    
     24 H           6.771   -10.695    -0.307  H    
     25 H           5.568   -10.765    -2.412  H    
     26 H           3.460    -9.574    -2.650  H    
     27 H           5.900    -9.445     1.559  H    
     28 H           1.948    -6.921     2.222  H    
     29 H           5.945    -6.460     1.837  H    
     30 H           2.701    -8.014     4.928  H    
     31 H           1.848    -7.148     7.006  H    
     32 H           2.639    -5.023     7.871  H    
     33 H           4.301    -3.742     6.637  H    
@<TRIPOS>BOND
     1    1    6 ar
     2    1    2 ar
     3    2    3 ar
     4    3    4 ar
     5    4   11 1
     6    4    5 ar
     7    5    6 ar
     8    5    7 1
     9    7    8 2
    10    7   12 1
    11    8    9 1
    12    9   10 2
    13    9   11 1
    14   12   13 1
    15   13   19 1
    16   13   14 2
    17   14   15 1
    18   15   16 2
    19   15   17 1
    20   17   18 1
    21   18   23 ar
    22   18   19 ar
    23   19   20 ar
    24   20   21 ar
    25   21   22 ar
    26   22   23 ar
    27    1   24 1
    28    2   25 1
    29    3   26 1
    30    6   27 1
    31    8   28 1
    32   14   29 1
    33   20   30 1
    34   21   31 1
    35   22   32 1
    36   23   33 1
@<TRIPOS>MOLECULE
ZINC00482012
 43 46 0 0 0
SMALL
NO_CHARGES


@<TRIPOS>ATOM
      1 C           3.005    -2.710    -0.808  C    
      2 C           3.626    -0.502     0.164  C    
      3 C           4.254     0.195     1.407  C    
      4 C           3.680    -0.267     2.701  C    
      5 C           2.843    -1.395     2.743  C    
      6 S           2.325    -1.643     4.367  S    
      7 C           3.210    -0.323     5.013  C    
      8 C           3.906     0.317     3.974  C    
      9 C           4.704     1.409     4.319  C    
     10 O           5.380     2.009     3.496  O    
     11 N           4.771     1.831     5.578  N    
     12 C           4.045     1.233     6.672  C    
     13 N           3.267     0.081     6.299  N    
     14 C           3.159     2.256     7.292  C    
     15 C           3.393     2.719     8.609  C    
     16 C           2.557     3.691     9.192  C    
     17 C           1.458     4.206     8.474  C    
     18 C           1.227     3.769     7.154  C    
     19 C           2.069     2.804     6.570  C    
     20 S           0.416     5.427     9.152  S    
     21 C          -0.272     4.450    10.514  C    
     22 C           2.484    -2.214     1.570  C    
     23 N           3.411    -1.964     0.415  N    
     24 H           2.045    -2.351    -1.186  H    
     25 H           2.917    -3.776    -0.589  H    
     26 H           3.757    -2.588    -1.590  H    
     27 H           2.672    -0.023    -0.081  H    
     28 H           4.303    -0.356    -0.683  H    
     29 H           5.330    -0.005     1.427  H    
     30 H           4.099     1.273     1.302  H    
     31 H           5.346     2.586     5.777  H    
     32 H           4.794     0.886     7.389  H    
     33 H           2.764    -0.396     6.974  H    
     34 H           4.182     2.354     9.154  H    
     35 H           2.754     4.017    10.141  H    
     36 H           0.446     4.145     6.609  H    
     37 H           1.877     2.494     5.614  H    
     38 H          -0.769     3.558    10.128  H    
     39 H          -1.001     5.058    11.051  H    
     40 H           0.518     4.155    11.209  H    
     41 H           2.549    -3.267     1.862  H    
     42 H           1.447    -1.986     1.300  H    
     43 H           4.323    -2.342     0.689  H    
@<TRIPOS>BOND
     1    1   23 1
     2    2    3 1
     3    2   23 1
     4    3    4 1
     5    4    8 1
     6    4    5 2
     7    5    6 1
     8    5   22 1
     9    6    7 1
    10    7   13 1
    11    7    8 2
    12    8    9 1
    13    9   10 2
    14    9   11 1
    15   11   12 1
    16   12   13 1
    17   12   14 1
    18   14   19 ar
    19   14   15 ar
    20   15   16 ar
    21   16   17 ar
    22   17   18 ar
    23   17   20 1
    24   18   19 ar
    25   20   21 1
    26   22   23 1
    27    1   24 1
    28    1   25 1
    29    1   26 1
    30    2   27 1
    31    2   28 1
    32    3   29 1
    33    3   30 1
    34   11   31 1
    35   12   32 1
    36   13   33 1
    37   15   34 1
    38   16   35 1
    39   18   36 1
    40   19   37 1
    41   21   38 1
    42   21   39 1
    43   21   40 1
    44   22   41 1
    45   22   42 1
    46   23   43 1
@<TRIPOS>MOLECULE
ZINC00501127
 21 22 0 0 0
SMALL
NO_CHARGES


@<TRIPOS>ATOM
      1 C          -1.790    -8.024    -0.337  C    
      2 C          -0.980    -7.449    -1.530  C    
      3 C          -0.257    -8.507    -2.394  C    
      4 C          -1.510    -7.809    -2.944  C    
      5 C          -1.333    -6.876    -4.070  C    
      6 O          -2.139    -5.792    -4.152  O    
      7 C          -0.194    -6.110    -1.367  C    
      8 C          -1.046    -4.841    -1.201  C    
      9 C          -0.159    -5.321    -0.048  C    
     10 O          -0.686    -7.289    -5.185  O    
     11 H          -2.633    -7.369    -0.110  H    
     12 H          -1.147    -8.108     0.543  H    
     13 H          -2.190    -9.019    -0.550  H    
     14 H           0.686    -8.227    -2.868  H    
     15 H          -0.404    -9.559    -2.144  H    
     16 H          -2.399    -8.448    -2.976  H    
     17 H           0.671    -5.937    -2.012  H    
     18 H          -0.689    -3.945    -1.714  H    
     19 H          -2.115    -4.974    -1.042  H    
     20 H          -0.703    -5.708     0.814  H    
     21 H           0.730    -4.715     0.127  H    
@<TRIPOS>BOND
     1    1    2 1
     2    2    4 1
     3    2    3 1
     4    2    7 1
     5    3    4 1
     6    4    5 1
     7    5    6 2
     8    5   10 1
     9    7    9 1
    10    7    8 1
    11    8    9 1
    12    1   11 1
    13    1   12 1
    14    1   13 1
    15    3   14 1
    16    3   15 1
    17    4   16 1
    18    7   17 1
    19    8   18 1
    20    8   19 1
    21    9   20 1
    22    9   21 1
@<TRIPOS>MOLECULE
ZINC00502240
 34 36 0 0 0
SMALL
NO_CHARGES


@<TRIPOS>ATOM
      1 C          -5.911     8.086    -4.115  C    
      2 C          -6.513     8.902    -3.135  C    
      3 C          -6.139     8.776    -1.784  C    
      4 C          -5.157     7.831    -1.392  C    
      5 C          -4.562     7.014    -2.387  C    
      6 C          -4.933     7.143    -3.740  C    
      7 N          -4.795     7.695    -0.063  N    
      8 C          -5.004     6.531     0.599  C    
      9 O          -5.723     5.673     0.091  O    
     10 C          -4.566     6.350     1.908  C    
     11 C          -4.426     5.142     2.514  C    
     12 C          -4.404     3.876     1.928  C    
     13 C          -3.701     3.614     0.724  C    
     14 C          -3.670     2.321     0.170  C    
     15 C          -4.323     1.257     0.825  C    
     16 C          -4.997     1.492     2.041  C    
     17 C          -5.022     2.786     2.594  C    
     18 Cl         -4.283    -0.299     0.161  Cl   
     19 C          -4.204     7.513     2.571  C    
     20 O          -3.980     7.568     3.773  O    
     21 N          -4.006     8.642     1.900  N    
     22 C          -4.259     8.738     0.600  C    
     23 O          -4.006     9.817     0.079  O    
     24 H          -6.179     8.184    -5.097  H    
     25 H          -7.221     9.588    -3.409  H    
     26 H          -6.593     9.367    -1.081  H    
     27 H          -3.852     6.324    -2.128  H    
     28 H          -4.495     6.550    -4.451  H    
     29 H          -4.300     5.135     3.502  H    
     30 H          -3.196     4.364     0.243  H    
     31 H          -3.164     2.159    -0.705  H    
     32 H          -5.461     0.722     2.532  H    
     33 H          -5.512     2.931     3.484  H    
     34 H          -3.678     9.424     2.373  H    
@<TRIPOS>BOND
     1    1    6 ar
     2    1    2 ar
     3    2    3 ar
     4    3    4 ar
     5    4    5 ar
     6    4    7 1
     7    5    6 ar
     8    7   22 1
     9    7    8 1
    10    8    9 2
    11    8   10 1
    12   10   11 2
    13   10   19 1
    14   11   12 1
    15   12   17 ar
    16   12   13 ar
    17   13   14 ar
    18   14   15 ar
    19   15   16 ar
    20   15   18 1
    21   16   17 ar
    22   19   20 2
    23   19   21 1
    24   21   22 1
    25   22   23 2
    26    1   24 1
    27    2   25 1
    28    3   26 1
    29    5   27 1
    30    6   28 1
    31   11   29 1
    32   13   30 1
    33   14   31 1
    34   16   32 1
    35   17   33 1
    36   21   34 1
@<TRIPOS>MOLECULE
ZINC00545484
 36 39 0 0 0
SMALL
NO_CHARGES


@<TRIPOS>ATOM
      1 C           3.698    10.390    14.041  C    
      2 C           3.230     9.924    12.719  C    
      3 C           3.555     8.639    12.227  C    
      4 C           3.103     8.218    10.960  C    
      5 C           2.314     9.080    10.169  C    
      6 C           1.825     8.725     8.907  C    
      7 C           1.039     9.551     8.169  C    
      8 C           0.748    10.806     8.698  C    
      9 N           1.205    11.185     9.888  N    
     10 C           1.978    10.366    10.662  C    
     11 C           2.437    10.782    11.926  C    
     12 O           0.109    11.650     8.088  O    
     13 C           0.561     9.133     6.919  C    
     14 N           0.986     8.062     6.222  N    
     15 C           0.304     8.031     5.069  C    
     16 O          -0.551     9.077     5.068  O    
     17 N          -0.390     9.735     6.181  N    
     18 C           0.459     7.098     4.014  C    
     19 C           1.345     5.999     4.132  C    
     20 C           1.493     5.076     3.079  C    
     21 C           0.766     5.242     1.887  C    
     22 C          -0.108     6.335     1.749  C    
     23 C          -0.261     7.254     2.805  C    
     24 H           4.307    11.288    13.913  H    
     25 H           4.299     9.639    14.557  H    
     26 H           2.836    10.631    14.667  H    
     27 H           4.123     7.998    12.788  H    
     28 H           3.348     7.286    10.627  H    
     29 H           2.055     7.820     8.560  H    
     30 H           0.994    12.076    10.214  H    
     31 H           2.190    11.717    12.271  H    
     32 H           1.888     5.857     4.986  H    
     33 H           2.130     4.280     3.182  H    
     34 H           0.872     4.572     1.125  H    
     35 H          -0.636     6.459     0.879  H    
     36 H          -0.901     8.040     2.677  H    
@<TRIPOS>BOND
     1    1    2 1
     2    2   11 ar
     3    2    3 ar
     4    3    4 ar
     5    4    5 ar
     6    5    6 1
     7    5   10 ar
     8    6    7 2
     9    7   13 1
    10    7    8 1
    11    8    9 1
    12    8   12 2
    13    9   10 1
    14   10   11 ar
    15   13   17 2
    16   13   14 1
    17   14   15 2
    18   15   16 1
    19   15   18 1
    20   16   17 1
    21   18   23 ar
    22   18   19 ar
    23   19   20 ar
    24   20   21 ar
    25   21   22 ar
    26   22   23 ar
    27    1   24 1
    28    1   25 1
    29    1   26 1
    30    3   27 1
    31    4   28 1
    32    6   29 1
    33    9   30 1
    34   11   31 1
    35   19   32 1
    36   20   33 1
    37   21   34 1
    38   22   35 1
    39   23   36 1
@<TRIPOS>MOLECULE
ZINC00555847
 34 35 0 0 0
SMALL
NO_CHARGES


@<TRIPOS>ATOM
      1 C           3.873    -8.601    -2.408  C    
      2 S           4.602    -8.526    -0.760  S    
      3 O           6.154    -8.870    -0.861  O    
      4 O           4.009    -9.685     0.156  O    
      5 N           4.361    -7.022    -0.016  N    
      6 C           3.128    -6.741     0.665  C    
      7 C           2.530    -5.396     0.175  C    
      8 N           3.543    -4.353     0.205  N    
      9 C           4.756    -4.660    -0.530  C    
     10 C           5.375    -6.001    -0.059  C    
     11 C           3.323    -3.126     0.791  C    
     12 C           2.062    -2.492     0.621  C    
     13 C           1.802    -1.208     1.133  C    
     14 C           2.799    -0.528     1.852  C    
     15 C           4.046    -1.137     2.060  C    
     16 C           4.310    -2.424     1.546  C    
     17 N           5.491    -2.975     1.890  N    
     18 H           4.325    -7.833    -3.041  H    
     19 H           2.798    -8.425    -2.334  H    
     20 H           4.051    -9.586    -2.841  H    
     21 H           2.385    -7.532     0.508  H    
     22 H           3.326    -6.684     1.740  H    
     23 H           2.165    -5.520    -0.850  H    
     24 H           1.670    -5.169     0.811  H    
     25 H           4.497    -4.759    -1.587  H    
     26 H           5.509    -3.874    -0.481  H    
     27 H           5.798    -5.886     0.940  H    
     28 H           6.188    -6.262    -0.737  H    
     29 H           1.327    -2.939     0.065  H    
     30 H           0.895    -0.765     0.972  H    
     31 H           2.614     0.405     2.227  H    
     32 H           4.755    -0.640     2.609  H    
     33 H           6.125    -2.472     2.428  H    
     34 H           5.705    -3.880     1.627  H    
@<TRIPOS>BOND
     1    1    2 1
     2    2    3 2
     3    2    4 2
     4    2    5 1
     5    5   10 1
     6    5    6 1
     7    6    7 1
     8    7    8 1
     9    8    9 1
    10    8   11 1
    11    9   10 1
    12   11   16 ar
    13   11   12 ar
    14   12   13 ar
    15   13   14 ar
    16   14   15 ar
    17   15   16 ar
    18   16   17 1
    19    1   18 1
    20    1   19 1
    21    1   20 1
    22    6   21 1
    23    6   22 1
    24    7   23 1
    25    7   24 1
    26    9   25 1
    27    9   26 1
    28   10   27 1
    29   10   28 1
    30   12   29 1
    31   13   30 1
    32   14   31 1
    33   15   32 1
    34   17   33 1
    35   17   34 1
@<TRIPOS>MOLECULE
ZINC00624193
 45 49 0 0 0
SMALL
NO_CHARGES


@<TRIPOS>ATOM
      1 C           0.880    -0.145     1.156  C    
      2 N           2.281    -0.358     1.442  N    
      3 C           2.822     0.145     2.603  C    
      4 C           4.168    -0.053     2.908  C    
      5 C           4.951    -0.765     2.021  C    
      6 O           6.130    -0.912     2.323  O    
      7 N           4.409    -1.261     0.884  N    
      8 C           3.093    -1.048     0.606  C    
      9 O           2.609    -1.495    -0.430  O    
     10 C           5.265    -2.030    -0.007  C    
     11 N           4.387     0.541     4.088  N    
     12 C           5.307     0.779     4.988  C    
     13 C           4.753     1.513     5.965  C    
     14 N           3.449     1.712     5.669  N    
     15 C           3.253     1.093     4.488  C    
     16 N           2.263     0.860     3.603  N    
     17 C           2.451     2.320     6.403  C    
     18 C           1.495     3.153     5.769  C    
     19 C           0.478     3.784     6.510  C    
     20 C           0.400     3.589     7.901  C    
     21 C           1.338     2.761     8.548  C    
     22 C           2.351     2.128     7.802  C    
     23 C           5.488     2.075     7.008  C    
     24 C           6.400     1.290     7.760  C    
     25 C           7.149     1.863     8.803  C    
     26 C           7.006     3.230     9.107  C    
     27 C           6.108     4.022     8.365  C    
     28 C           5.352     3.449     7.328  C    
     29 H           0.770     0.392     0.211  H    
     30 H           0.363     0.434     1.924  H    
     31 H           0.369    -1.108     1.072  H    
     32 H           6.116    -1.420    -0.328  H    
     33 H           4.769    -2.382    -0.911  H    
     34 H           5.647    -2.910     0.513  H    
     35 H           6.262     0.521     4.908  H    
     36 H           1.543     3.322     4.759  H    
     37 H          -0.200     4.388     6.043  H    
     38 H          -0.334     4.050     8.445  H    
     39 H           1.280     2.616     9.559  H    
     40 H           3.013     1.515     8.287  H    
     41 H           6.512     0.290     7.561  H    
     42 H           7.800     1.286     9.342  H    
     43 H           7.556     3.647     9.860  H    
     44 H           6.008     5.017     8.582  H    
     45 H           4.717     4.049     6.792  H    
@<TRIPOS>BOND
     1    1    2 1
     2    2    8 1
     3    2    3 1
     4    3   16 1
     5    3    4 2
     6    4    5 1
     7    4   11 1
     8    5    6 2
     9    5    7 1
    10    7    8 1
    11    7   10 1
    12    8    9 2
    13   11   15 1
    14   11   12 1
    15   12   13 2
    16   13   14 1
    17   13   23 1
    18   14   15 1
    19   14   17 1
    20   15   16 2
    21   17   22 ar
    22   17   18 ar
    23   18   19 ar
    24   19   20 ar
    25   20   21 ar
    26   21   22 ar
    27   23   28 ar
    28   23   24 ar
    29   24   25 ar
    30   25   26 ar
    31   26   27 ar
    32   27   28 ar
    33    1   29 1
    34    1   30 1
    35    1   31 1
    36   10   32 1
    37   10   33 1
    38   10   34 1
    39   12   35 1
    40   18   36 1
    41   19   37 1
    42   20   38 1
    43   21   39 1
    44   22   40 1
    45   24   41 1
    46   25   42 1
    47   26   43 1
    48   27   44 1
    49   28   45 1
@<TRIPOS>MOLECULE
ZINC00658423
 31 33 0 0 0
SMALL
NO_CHARGES


@<TRIPOS>ATOM
      1 C           5.606     0.754    -1.705  C    
      2 C           6.204     1.194    -0.510  C    
      3 C           5.637     2.260     0.212  C    
      4 C           4.472     2.891    -0.262  C    
      5 C           3.875     2.453    -1.457  C    
      6 C           4.440     1.386    -2.192  C    
      7 N           3.856     0.959    -3.367  N    
      8 C           3.083    -0.154    -3.390  C    
      9 O           2.855    -0.746    -2.337  O    
     10 C           2.545    -0.636    -4.584  C    
     11 C           2.063    -1.901    -4.681  C    
     12 C           1.769    -2.635    -5.819  C    
     13 C           2.369    -2.620    -7.088  C    
     14 C           1.850    -3.552    -8.003  C    
     15 C           0.831    -4.356    -7.492  C    
     16 S           0.589    -3.890    -5.859  S    
     17 Cl         -0.003    -5.577    -8.307  Cl   
     18 C           2.572     0.257    -5.639  C    
     19 O           1.801     0.191    -6.586  O    
     20 N           3.330     1.345    -5.600  N    
     21 C           4.026     1.680    -4.513  C    
     22 S           5.010     3.065    -4.673  S    
     23 F           6.190     2.670     1.321  F    
     24 H           6.024    -0.021    -2.225  H    
     25 H           7.051     0.735    -0.173  H    
     26 H           4.058     3.666     0.260  H    
     27 H           3.026     2.914    -1.793  H    
     28 H           1.908    -2.405    -3.839  H    
     29 H           3.146    -2.002    -7.331  H    
     30 H           2.197    -3.640    -8.959  H    
     31 H           3.332     1.945    -6.362  H    
@<TRIPOS>BOND
     1    1    6 ar
     2    1    2 ar
     3    2    3 ar
     4    3    4 ar
     5    3   23 1
     6    4    5 ar
     7    5    6 ar
     8    6    7 1
     9    7   21 1
    10    7    8 1
    11    8    9 2
    12    8   10 1
    13   10   11 2
    14   10   18 1
    15   11   12 1
    16   12   16 1
    17   12   13 2
    18   13   14 1
    19   14   15 2
    20   15   16 1
    21   15   17 1
    22   18   19 2
    23   18   20 1
    24   20   21 1
    25   21   22 2
    26    1   24 1
    27    2   25 1
    28    4   26 1
    29    5   27 1
    30   11   28 1
    31   13   29 1
    32   14   30 1
    33   20   31 1
@<TRIPOS>MOLECULE
ZINC00702479
 44 47 0 0 0
SMALL
NO_CHARGES


@<TRIPOS>ATOM
      1 C           0.963     9.287     4.092  C    
      2 C           0.621     7.782     3.856  C    
      3 C           0.852     7.415     2.348  C    
      4 C           0.294     6.112     1.982  C    
      5 C          -0.788     5.585     2.619  C    
      6 C          -1.276     4.248     2.192  C    
      7 C          -0.634     3.708     0.976  C    
      8 C          -1.046     2.549     0.341  C    
      9 O          -1.990     1.889     0.746  O    
     10 N          -0.420     2.111    -0.751  N    
     11 C           0.630     2.786    -1.281  C    
     12 N           1.027     3.932    -0.663  N    
     13 C           0.412     4.384     0.437  C    
     14 N           0.845     5.492     0.965  N    
     15 S           1.377     2.161    -2.724  S    
     16 C           2.762     3.304    -2.921  C    
     17 C          -1.103     3.280     3.311  C    
     18 C          -2.121     2.616     4.007  C    
     19 C          -1.678     1.755     5.026  C    
     20 C          -0.290     1.707     5.174  C    
     21 S           0.388     2.766     4.005  S    
     22 C          -1.408     6.271     3.645  C    
     23 O          -2.525     5.939     4.024  O    
     24 C          -0.888     7.519     4.195  C    
     25 C           1.546     6.915     4.775  C    
     26 H           0.347     9.931     3.461  H    
     27 H           2.011     9.486     3.856  H    
     28 H           0.786     9.563     5.134  H    
     29 H           0.372     8.160     1.706  H    
     30 H           1.926     7.449     2.131  H    
     31 H          -2.339     4.353     1.951  H    
     32 H          -0.725     1.294    -1.177  H    
     33 H           1.590     5.895     0.563  H    
     34 H           2.395     4.323    -3.049  H    
     35 H           3.332     3.021    -3.806  H    
     36 H           3.415     3.255    -2.048  H    
     37 H          -3.114     2.745     3.794  H    
     38 H          -2.322     1.211     5.608  H    
     39 H           0.228     1.146     5.853  H    
     40 H          -1.020     7.521     5.282  H    
     41 H          -1.506     8.326     3.792  H    
     42 H           2.599     7.087     4.538  H    
     43 H           1.343     5.850     4.653  H    
     44 H           1.392     7.168     5.827  H    
@<TRIPOS>BOND
     1    1    2 1
     2    2   24 1
     3    2    3 1
     4    2   25 1
     5    3    4 1
     6    4   14 1
     7    4    5 2
     8    5    6 1
     9    5   22 1
    10    6    7 1
    11    6   17 1
    12    7   13 2
    13    7    8 1
    14    8    9 2
    15    8   10 1
    16   10   11 1
    17   11   12 2
    18   11   15 1
    19   12   13 1
    20   13   14 1
    21   15   16 1
    22   17   21 1
    23   17   18 2
    24   18   19 1
    25   19   20 2
    26   20   21 1
    27   22   23 2
    28   22   24 1
    29    1   26 1
    30    1   27 1
    31    1   28 1
    32    3   29 1
    33    3   30 1
    34    6   31 1
    35   10   32 1
    36   14   33 1
    37   16   34 1
    38   16   35 1
    39   16   36 1
    40   18   37 1
    41   19   38 1
    42   20   39 1
    43   24   40 1
    44   24   41 1
    45   25   42 1
    46   25   43 1
    47   25   44 1
@<TRIPOS>MOLECULE
ZINC00792196
 45 48 0 0 0
SMALL
NO_CHARGES


@<TRIPOS>ATOM
      1 C           1.451    -1.986    -0.625  C    
      2 N           2.323    -1.429    -1.604  N    
      3 C           2.569    -0.119    -1.599  C    
      4 C           3.858     0.317    -1.606  C    
      5 C           4.922    -0.654    -1.968  C    
      6 C           4.430    -1.979    -2.429  C    
      7 C           3.096    -2.247    -2.329  C    
      8 C           2.496    -3.435    -2.968  C    
      9 C           3.433    -4.180    -3.958  C    
     10 C           4.869    -4.223    -3.385  C    
     11 C           5.289    -2.867    -3.058  C    
     12 O           6.398    -2.511    -3.442  O    
     13 C           5.971    -0.788    -0.896  C    
     14 C           7.303    -0.373    -1.169  C    
     15 C           8.320    -0.477    -0.197  C    
     16 C           8.023    -1.002     1.073  C    
     17 C           6.713    -1.424     1.365  C    
     18 C           5.695    -1.318     0.395  C    
     19 O           4.465    -1.743     0.773  O    
     20 Cl          9.900     0.023    -0.552  Cl   
     21 C           4.156     1.653    -1.375  C    
     22 O           5.284     2.089    -1.573  O    
     23 C           3.148     2.641    -0.991  C    
     24 C           1.753     2.026    -0.692  C    
     25 C           1.472     0.857    -1.668  C    
     26 H           0.591    -2.450    -1.118  H    
     27 H           1.065    -1.248     0.087  H    
     28 H           1.970    -2.749    -0.035  H    
     29 H           5.379    -0.210    -2.858  H    
     30 H           2.201    -4.140    -2.189  H    
     31 H           1.599    -3.134    -3.513  H    
     32 H           3.069    -5.197    -4.125  H    
     33 H           3.442    -3.657    -4.922  H    
     34 H           4.884    -4.826    -2.473  H    
     35 H           5.539    -4.687    -4.114  H    
     36 H           7.546     0.011    -2.088  H    
     37 H           8.754    -1.080     1.792  H    
     38 H           6.504    -1.806     2.296  H    
     39 H           3.857    -1.452     0.061  H    
     40 H           3.489     3.183    -0.104  H    
     41 H           3.046     3.360    -1.808  H    
     42 H           1.731     1.652     0.338  H    
     43 H           0.979     2.791    -0.792  H    
     44 H           1.426     1.248    -2.689  H    
     45 H           0.500     0.410    -1.438  H    
@<TRIPOS>BOND
     1    1    2 1
     2    2    7 1
     3    2    3 1
     4    3   25 1
     5    3    4 2
     6    4    5 1
     7    4   21 1
     8    5    6 1
     9    5   13 1
    10    6   11 1
    11    6    7 2
    12    7    8 1
    13    8    9 1
    14    9   10 1
    15   10   11 1
    16   11   12 2
    17   13   18 ar
    18   13   14 ar
    19   14   15 ar
    20   15   16 ar
    21   15   20 1
    22   16   17 ar
    23   17   18 ar
    24   18   19 1
    25   21   22 2
    26   21   23 1
    27   23   24 1
    28   24   25 1
    29    1   26 1
    30    1   27 1
    31    1   28 1
    32    5   29 1
    33    8   30 1
    34    8   31 1
    35    9   32 1
    36    9   33 1
    37   10   34 1
    38   10   35 1
    39   14   36 1
    40   16   37 1
    41   17   38 1
    42   19   39 1
    43   23   40 1
    44   23   41 1
    45   24   42 1
    46   24   43 1
    47   25   44 1
    48   25   45 1
@<TRIPOS>MOLECULE
ZINC01028341
 26 27 0 0 0
SMALL
NO_CHARGES


@<TRIPOS>ATOM
      1 C           1.077     1.635     4.257  C    
      2 C          -0.140     0.952     4.083  C    
      3 C          -0.251    -0.043     3.095  C    
      4 C           0.858    -0.364     2.286  C    
      5 C           2.098     0.298     2.469  C    
      6 C           2.187     1.311     3.455  C    
      7 C           3.184    -0.004     1.651  C    
      8 C           4.437    -0.324     2.038  C    
      9 C           5.482    -0.526     1.059  C    
     10 C           6.745    -0.901     1.867  C    
     11 C           6.298    -0.894     3.338  C    
     12 C           4.902    -0.554     3.286  C    
     13 O           4.225    -0.629     4.301  O    
     14 O           0.729    -1.345     1.349  O    
     15 H           1.153     2.368     4.966  H    
     16 H          -0.943     1.185     4.664  H    
     17 H          -1.143    -0.532     2.967  H    
     18 H           3.058     1.836     3.586  H    
     19 H           2.996    -0.023     0.672  H    
     20 H           5.216    -1.333     0.370  H    
     21 H           5.652     0.391     0.486  H    
     22 H           7.110    -1.891     1.574  H    
     23 H           7.547    -0.174     1.703  H    
     24 H           6.435    -1.883     3.786  H    
     25 H           6.849    -0.150     3.923  H    
     26 H          -0.188    -1.687     1.439  H    
@<TRIPOS>BOND
     1    1    6 ar
     2    1    2 ar
     3    2    3 ar
     4    3    4 ar
     5    4    5 ar
     6    4   14 1
     7    5    6 ar
     8    5    7 1
     9    7    8 2
    10    8   12 1
    11    8    9 1
    12    9   10 1
    13   10   11 1
    14   11   12 1
    15   12   13 2
    16    1   15 1
    17    2   16 1
    18    3   17 1
    19    6   18 1
    20    7   19 1
    21    9   20 1
    22    9   21 1
    23   10   22 1
    24   10   23 1
    25   11   24 1
    26   11   25 1
    27   14   26 1
@<TRIPOS>MOLECULE
ZINC01034407
 34 36 0 0 0
SMALL
NO_CHARGES


@<TRIPOS>ATOM
      1 C           1.476    -6.025    -3.725  C    
      2 C           0.739    -4.696    -3.364  C    
      3 C           0.274    -4.649    -1.882  C    
      4 C           1.275    -4.398    -0.855  C    
      5 O           0.907    -4.541     0.302  O    
      6 N           2.542    -4.028    -0.983  N    
      7 C           3.303    -3.718    -2.077  C    
      8 C           4.696    -3.652    -1.844  C    
      9 C           5.594    -3.349    -2.882  C    
     10 C           5.112    -3.107    -4.177  C    
     11 C           3.730    -3.160    -4.425  C    
     12 C           2.808    -3.440    -3.383  C    
     13 N           1.457    -3.463    -3.675  N    
     14 C           0.826    -2.384    -4.194  C    
     15 O          -0.341    -2.454    -4.560  O    
     16 C           1.366    -1.103    -4.291  C    
     17 C           1.962    -0.436    -3.196  C    
     18 C           2.454     0.839    -3.475  C    
     19 S           2.137     1.167    -5.133  S    
     20 C           1.364    -0.330    -5.469  C    
     21 Cl          0.791    -0.756    -7.003  Cl   
     22 Cl          3.231     1.879    -2.395  Cl   
     23 H           1.802    -5.996    -4.768  H    
     24 H           0.802    -6.876    -3.600  H    
     25 H           2.348    -6.185    -3.087  H    
     26 H          -0.175    -4.756    -3.965  H    
     27 H          -0.486    -3.865    -1.790  H    
     28 H          -0.219    -5.600    -1.657  H    
     29 H           3.025    -3.989    -0.140  H    
     30 H           5.075    -3.837    -0.912  H    
     31 H           6.600    -3.311    -2.698  H    
     32 H           5.763    -2.898    -4.937  H    
     33 H           3.397    -2.991    -5.377  H    
     34 H           2.031    -0.850    -2.262  H    
@<TRIPOS>BOND
     1    1    2 1
     2    2   13 1
     3    2    3 1
     4    3    4 1
     5    4    5 2
     6    4    6 1
     7    6    7 1
     8    7   12 ar
     9    7    8 ar
    10    8    9 ar
    11    9   10 ar
    12   10   11 ar
    13   11   12 ar
    14   12   13 1
    15   13   14 1
    16   14   15 2
    17   14   16 1
    18   16   20 2
    19   16   17 1
    20   17   18 2
    21   18   19 1
    22   18   22 1
    23   19   20 1
    24   20   21 1
    25    1   23 1
    26    1   24 1
    27    1   25 1
    28    2   26 1
    29    3   27 1
    30    3   28 1
    31    6   29 1
    32    8   30 1
    33    9   31 1
    34   10   32 1
    35   11   33 1
    36   17   34 1
@<TRIPOS>MOLECULE
ZINC01045805
 36 38 0 0 0
SMALL
NO_CHARGES


@<TRIPOS>ATOM
      1 C           1.396    -1.524    -0.849  C    
      2 C           1.889    -2.542    -1.805  C    
      3 C           2.243    -3.842    -1.374  C    
      4 C           2.717    -4.796    -2.291  C    
      5 C           2.843    -4.470    -3.660  C    
      6 C           2.493    -3.172    -4.098  C    
      7 C           2.024    -2.217    -3.176  C    
      8 C           3.313    -5.425    -4.565  C    
      9 C           2.369    -6.123    -5.293  C    
     10 C           2.742    -7.089    -6.164  C    
     11 N           4.062    -7.336    -6.308  N    
     12 C           5.001    -6.682    -5.628  C    
     13 O           6.160    -7.002    -5.863  O    
     14 C           4.639    -5.715    -4.714  C    
     15 C           5.560    -5.061    -4.101  C    
     16 N           6.385    -4.472    -3.558  N    
     17 C           1.827    -7.844    -6.913  C    
     18 C           2.040    -9.230    -7.131  C    
     19 C           1.108   -10.002    -7.851  C    
     20 C          -0.044    -9.399    -8.388  C    
     21 C          -0.261    -8.022    -8.203  C    
     22 C           0.664    -7.253    -7.472  C    
     23 F          -0.912   -10.118    -9.048  F    
     24 H           2.064    -0.661    -0.855  H    
     25 H           1.349    -1.909     0.172  H    
     26 H           0.394    -1.196    -1.136  H    
     27 H           2.161    -4.102    -0.387  H    
     28 H           2.963    -5.731    -1.956  H    
     29 H           2.579    -2.914    -5.086  H    
     30 H           1.786    -1.279    -3.510  H    
     31 H           1.402    -5.947    -5.142  H    
     32 H           4.344    -8.015    -6.936  H    
     33 H           2.863    -9.700    -6.745  H    
     34 H           1.271   -11.004    -7.983  H    
     35 H          -1.090    -7.575    -8.603  H    
     36 H           0.485    -6.252    -7.368  H    
@<TRIPOS>BOND
     1    1    2 1
     2    2    7 ar
     3    2    3 ar
     4    3    4 ar
     5    4    5 ar
     6    5    6 ar
     7    5    8 1
     8    6    7 ar
     9    8   14 2
    10    8    9 1
    11    9   10 2
    12   10   11 1
    13   10   17 1
    14   11   12 1
    15   12   13 2
    16   12   14 1
    17   14   15 1
    18   15   16 3
    19   17   22 ar
    20   17   18 ar
    21   18   19 ar
    22   19   20 ar
    23   20   21 ar
    24   20   23 1
    25   21   22 ar
    26    1   24 1
    27    1   25 1
    28    1   26 1
    29    3   27 1
    30    4   28 1
    31    6   29 1
    32    7   30 1
    33    9   31 1
    34   11   32 1
    35   18   33 1
    36   19   34 1
    37   21   35 1
    38   22   36 1
@<TRIPOS>MOLECULE
ZINC01050414
 54 57 0 0 0
SMALL
NO_CHARGES


@<TRIPOS>ATOM
      1 C           4.759   -12.882    -3.724  C    
      2 C           4.811   -11.564    -3.048  C    
      3 C           4.597   -11.447    -1.655  C    
      4 C           4.649   -10.185    -1.030  C    
      5 C           4.909    -9.010    -1.777  C    
      6 C           5.126    -9.138    -3.173  C    
      7 C           5.074   -10.398    -3.800  C    
      8 C           4.943    -7.673    -1.104  C    
      9 C           3.969    -6.714    -1.721  C    
     10 C           2.592    -6.937    -1.805  C    
     11 N           2.040    -5.895    -2.442  N    
     12 N           2.945    -5.023    -2.754  N    
     13 C           4.155    -5.453    -2.309  C    
     14 N           5.289    -4.712    -2.433  N    
     15 C           6.349    -4.679    -1.638  C    
     16 O           7.194    -3.844    -1.917  O    
     17 C           6.554    -5.511    -0.478  C    
     18 S           6.693    -7.212    -1.045  S    
     19 C           2.575    -3.804    -3.438  C    
     20 C           2.885    -2.522    -2.615  C    
     21 C           2.481    -1.256    -3.411  C    
     22 O           3.090    -1.243    -4.721  O    
     23 C           2.851    -2.377    -5.596  C    
     24 C           3.192    -3.721    -4.863  C    
     25 C           3.824    -2.179    -6.798  C    
     26 C           1.389    -2.359    -6.147  C    
     27 C           1.797    -8.078    -1.315  C    
     28 H           3.979   -12.874    -4.486  H    
     29 H           4.546   -13.696    -3.030  H    
     30 H           5.717   -13.086    -4.203  H    
     31 H           4.407   -12.277    -1.084  H    
     32 H           4.488   -10.134    -0.020  H    
     33 H           5.317    -8.310    -3.743  H    
     34 H           5.233   -10.461    -4.811  H    
     35 H           4.643    -7.775    -0.059  H    
     36 H           5.281    -4.034    -3.124  H    
     37 H           7.487    -5.259     0.029  H    
     38 H           5.744    -5.383     0.238  H    
     39 H           1.489    -3.813    -3.574  H    
     40 H           2.335    -2.541    -1.670  H    
     41 H           3.949    -2.452    -2.386  H    
     42 H           1.393    -1.190    -3.497  H    
     43 H           2.821    -0.366    -2.872  H    
     44 H           4.275    -3.812    -4.782  H    
     45 H           2.843    -4.570    -5.456  H    
     46 H           3.619    -1.236    -7.311  H    
     47 H           3.723    -2.993    -7.519  H    
     48 H           4.861    -2.152    -6.454  H    
     49 H           0.656    -2.425    -5.345  H    
     50 H           1.223    -3.201    -6.821  H    
     51 H           1.198    -1.435    -6.696  H    
     52 H           2.114    -9.003    -1.799  H    
     53 H           0.733    -7.935    -1.526  H    
     54 H           1.926    -8.175    -0.237  H    
@<TRIPOS>BOND
     1    1    2 1
     2    2    7 ar
     3    2    3 ar
     4    3    4 ar
     5    4    5 ar
     6    5    6 ar
     7    5    8 1
     8    6    7 ar
     9    8   18 1
    10    8    9 1
    11    9   13 2
    12    9   10 1
    13   10   11 2
    14   10   27 1
    15   11   12 1
    16   12   13 1
    17   12   19 1
    18   13   14 1
    19   14   15 1
    20   15   16 2
    21   15   17 1
    22   17   18 1
    23   19   24 1
    24   19   20 1
    25   20   21 1
    26   21   22 1
    27   22   23 1
    28   23   24 1
    29   23   25 1
    30   23   26 1
    31    1   28 1
    32    1   29 1
    33    1   30 1
    34    3   31 1
    35    4   32 1
    36    6   33 1
    37    7   34 1
    38    8   35 1
    39   14   36 1
    40   17   37 1
    41   17   38 1
    42   19   39 1
    43   20   40 1
    44   20   41 1
    45   21   42 1
    46   21   43 1
    47   24   44 1
    48   24   45 1
    49   25   46 1
    50   25   47 1
    51   25   48 1
    52   26   49 1
    53   26   50 1
    54   26   51 1
    55   27   52 1
    56   27   53 1
    57   27   54 1
@<TRIPOS>MOLECULE
ZINC01058983
 48 51 0 0 0
SMALL
NO_CHARGES


@<TRIPOS>ATOM
      1 C           4.513    -4.109    -6.314  C    
      2 C           5.467    -3.503    -5.245  C    
      3 C           6.543    -2.504    -5.773  C    
      4 C           5.858    -1.146    -6.178  C    
      5 C           4.685    -0.768    -5.344  C    
      6 C           4.242    -1.621    -4.376  C    
      7 N           4.725    -2.837    -4.262  N    
      8 C           3.154    -1.275    -3.456  C    
      9 C           3.021     0.265    -3.281  C    
     10 C           3.006     0.964    -4.670  C    
     11 C           3.997     0.407    -5.584  C    
     12 O           4.084     0.952    -6.676  O    
     13 C           1.852     0.660    -2.424  C    
     14 C           0.520     0.309    -2.770  C    
     15 C          -0.571     0.675    -1.957  C    
     16 C          -0.356     1.411    -0.779  C    
     17 C           0.952     1.776    -0.418  C    
     18 C           2.042     1.404    -1.230  C    
     19 C           6.889    -0.047    -6.208  C    
     20 C           7.429     0.495    -5.012  C    
     21 C           8.385     1.527    -5.048  C    
     22 C           8.829     2.035    -6.280  C    
     23 C           8.310     1.510    -7.477  C    
     24 C           7.349     0.483    -7.440  C    
     25 Br         10.100     3.398    -6.329  Br   
     26 C           7.321    -3.039    -6.772  C    
     27 N           7.974    -3.487    -7.609  N    
     28 H           3.827    -4.814    -5.840  H    
     29 H           5.084    -4.646    -7.070  H    
     30 H           3.927    -3.329    -6.803  H    
     31 H           5.972    -4.334    -4.742  H    
     32 H           7.208    -2.321    -4.920  H    
     33 H           5.459    -1.287    -7.187  H    
     34 H           4.560    -3.301    -3.470  H    
     35 H           2.232    -1.705    -3.855  H    
     36 H           3.326    -1.712    -2.464  H    
     37 H           3.946     0.590    -2.792  H    
     38 H           2.021     0.866    -5.136  H    
     39 H           3.205     2.032    -4.524  H    
     40 H           0.324    -0.224    -3.620  H    
     41 H          -1.526     0.407    -2.220  H    
     42 H          -1.151     1.681    -0.187  H    
     43 H           1.108     2.314     0.440  H    
     44 H           2.978     1.688    -0.937  H    
     45 H           7.119     0.145    -4.102  H    
     46 H           8.754     1.906    -4.175  H    
     47 H           8.630     1.871    -8.376  H    
     48 H           6.991     0.117    -8.326  H    
@<TRIPOS>BOND
     1    1    2 1
     2    2    7 1
     3    2    3 1
     4    3    4 1
     5    3   26 1
     6    4    5 1
     7    4   19 1
     8    5   11 1
     9    5    6 2
    10    6    7 1
    11    6    8 1
    12    8    9 1
    13    9   10 1
    14    9   13 1
    15   10   11 1
    16   11   12 2
    17   13   18 ar
    18   13   14 ar
    19   14   15 ar
    20   15   16 ar
    21   16   17 ar
    22   17   18 ar
    23   19   24 ar
    24   19   20 ar
    25   20   21 ar
    26   21   22 ar
    27   22   23 ar
    28   22   25 1
    29   23   24 ar
    30   26   27 3
    31    1   28 1
    32    1   29 1
    33    1   30 1
    34    2   31 1
    35    3   32 1
    36    4   33 1
    37    7   34 1
    38    8   35 1
    39    8   36 1
    40    9   37 1
    41   10   38 1
    42   10   39 1
    43   14   40 1
    44   15   41 1
    45   16   42 1
    46   17   43 1
    47   18   44 1
    48   20   45 1
    49   21   46 1
    50   23   47 1
    51   24   48 1
@<TRIPOS>MOLECULE
ZINC01091127
 22 23 0 0 0
SMALL
NO_CHARGES


@<TRIPOS>ATOM
      1 C          -1.435    -4.861    -2.877  C    
      2 C          -0.684    -3.684    -2.698  C    
      3 C           0.652    -3.737    -2.229  C    
      4 C           1.201    -5.004    -1.902  C    
      5 C           0.450    -6.181    -2.080  C    
      6 C          -0.864    -6.108    -2.575  C    
      7 Br          1.190    -7.835    -1.649  Br   
      8 C           1.358    -2.553    -2.035  C    
      9 C           2.634    -2.294    -2.398  C    
     10 C           3.272    -1.124    -2.153  C    
     11 O           2.852    -0.214    -1.453  O    
     12 N           4.443    -1.020    -2.723  N    
     13 C           4.775    -2.097    -3.436  C    
     14 N           5.919    -2.210    -4.122  N    
     15 S           3.576    -3.337    -3.386  S    
     16 H          -2.396    -4.812    -3.225  H    
     17 H          -1.120    -2.786    -2.927  H    
     18 H           2.141    -5.078    -1.509  H    
     19 H          -1.411    -6.960    -2.709  H    
     20 H           0.837    -1.808    -1.634  H    
     21 H           5.012    -0.239    -2.635  H    
     22 H           6.108    -3.017    -4.623  H    
@<TRIPOS>BOND
     1    1    6 ar
     2    1    2 ar
     3    2    3 ar
     4    3    4 ar
     5    3    8 1
     6    4    5 ar
     7    5    6 ar
     8    5    7 1
     9    8    9 2
    10    9   15 1
    11    9   10 1
    12   10   11 2
    13   10   12 1
    14   12   13 1
    15   13   14 2
    16   13   15 1
    17    1   16 1
    18    2   17 1
    19    4   18 1
    20    6   19 1
    21    8   20 1
    22   12   21 1
    23   14   22 1
@<TRIPOS>MOLECULE
ZINC01098905
 57 61 0 0 0
SMALL
NO_CHARGES


@<TRIPOS>ATOM
      1 C          -1.309    -5.881    -6.464  C    
      2 C           0.154    -5.602    -6.001  C    
      3 C           0.166    -4.621    -4.775  C    
      4 C           2.230    -5.596    -3.930  C    
      5 C           2.289    -6.612    -5.127  C    
      6 C           0.896    -6.806    -5.577  C    
      7 O           0.379    -7.917    -5.597  O    
      8 C           3.049    -5.930    -6.320  C    
      9 C           0.986    -4.954    -7.164  C    
     10 C           2.375    -3.627    -5.514  C    
     11 C           1.756    -2.231    -5.945  C    
     12 C           1.805    -1.165    -4.817  C    
     13 C           3.894    -2.159    -3.965  C    
     14 C           3.850    -3.225    -5.092  C    
     15 C           3.272     0.181    -3.333  C    
     16 C           4.647     0.709    -3.140  C    
     17 C           5.279     1.450    -4.165  C    
     18 C           6.582     1.954    -3.995  C    
     19 C           7.278     1.717    -2.795  C    
     20 C           6.662     0.977    -1.765  C    
     21 C           5.357     0.482    -1.937  C    
     22 C           3.013    -7.924    -4.695  C    
     23 N           1.592    -4.306    -4.386  N    
     24 N           2.378    -4.624    -6.676  N    
     25 N           3.206    -0.894    -4.376  N    
     26 H          -1.320    -6.564    -7.316  H    
     27 H          -1.801    -4.953    -6.763  H    
     28 H          -1.891    -6.330    -5.655  H    
     29 H          -0.396    -3.713    -4.997  H    
     30 H          -0.357    -5.074    -3.925  H    
     31 H           1.651    -6.024    -3.104  H    
     32 H           3.224    -5.424    -3.516  H    
     33 H           4.103    -5.784    -6.078  H    
     34 H           3.053    -6.594    -7.191  H    
     35 H           1.045    -5.644    -8.013  H    
     36 H           0.482    -4.070    -7.557  H    
     37 H           2.306    -1.845    -6.811  H    
     38 H           0.716    -2.296    -6.263  H    
     39 H           1.359    -0.247    -5.209  H    
     40 H           1.192    -1.500    -3.975  H    
     41 H           3.437    -2.570    -3.059  H    
     42 H           4.945    -1.959    -3.742  H    
     43 H           4.448    -4.066    -4.743  H    
     44 H           4.380    -2.827    -5.965  H    
     45 H           2.861    -0.199    -2.393  H    
     46 H           2.649     1.032    -3.619  H    
     47 H           4.791     1.637    -5.048  H    
     48 H           7.030     2.494    -4.741  H    
     49 H           8.227     2.078    -2.669  H    
     50 H           7.170     0.801    -0.894  H    
     51 H           4.934    -0.058    -1.177  H    
     52 H           4.035    -7.712    -4.374  H    
     53 H           3.056    -8.632    -5.526  H    
     54 H           2.486    -8.399    -3.863  H    
     55 H           1.563    -3.672    -3.584  H    
     56 H           2.893    -4.207    -7.455  H    
     57 H           3.702    -0.544    -5.199  H    
@<TRIPOS>BOND
     1    1    2 1
     2    2    6 1
     3    2    9 1
     4    2    3 1
     5    3   23 1
     6    4    5 1
     7    4   23 1
     8    5    6 1
     9    5    8 1
    10    5   22 1
    11    6    7 2
    12    8   24 1
    13    9   24 1
    14   10   14 1
    15   10   11 1
    16   10   23 1
    17   10   24 1
    18   11   12 1
    19   12   25 1
    20   13   14 1
    21   13   25 1
    22   15   16 1
    23   15   25 1
    24   16   21 ar
    25   16   17 ar
    26   17   18 ar
    27   18   19 ar
    28   19   20 ar
    29   20   21 ar
    30    1   26 1
    31    1   27 1
    32    1   28 1
    33    3   29 1
    34    3   30 1
    35    4   31 1
    36    4   32 1
    37    8   33 1
    38    8   34 1
    39    9   35 1
    40    9   36 1
    41   11   37 1
    42   11   38 1
    43   12   39 1
    44   12   40 1
    45   13   41 1
    46   13   42 1
    47   14   43 1
    48   14   44 1
    49   15   45 1
    50   15   46 1
    51   17   47 1
    52   18   48 1
    53   19   49 1
    54   20   50 1
    55   21   51 1
    56   22   52 1
    57   22   53 1
    58   22   54 1
    59   23   55 1
    60   24   56 1
    61   25   57 1
@<TRIPOS>MOLECULE
ZINC01152169
 36 38 0 0 0
SMALL
NO_CHARGES


@<TRIPOS>ATOM
      1 C           0.393    -1.619     4.794  C    
      2 C           1.123    -1.814     3.520  C    
      3 C           0.723    -2.793     2.586  C    
      4 C           1.448    -2.978     1.397  C    
      5 C           2.586    -2.188     1.115  C    
      6 C           2.989    -1.183     2.036  C    
      7 C           2.249    -1.010     3.231  C    
      8 C           4.166    -0.324     1.753  C    
      9 N           3.276    -2.442    -0.045  N    
     10 C           3.094    -1.777    -1.176  C    
     11 O           2.299    -0.848    -1.276  O    
     12 C           3.879    -2.198    -2.200  C    
     13 C           3.834    -1.687    -3.453  C    
     14 C           4.641    -2.009    -4.545  C    
     15 C           6.040    -2.220    -4.445  C    
     16 C           6.809    -2.501    -5.591  C    
     17 C           6.171    -2.553    -6.845  C    
     18 N           4.838    -2.313    -6.935  N    
     19 C           4.071    -2.035    -5.845  C    
     20 S           4.839    -3.538    -1.736  S    
     21 C           4.187    -3.402    -0.176  C    
     22 S           4.729    -4.467     1.041  S    
     23 H           1.071    -1.778     5.634  H    
     24 H          -0.446    -2.311     4.903  H    
     25 H           0.000    -0.601     4.843  H    
     26 H          -0.099    -3.383     2.764  H    
     27 H           1.145    -3.699     0.736  H    
     28 H           2.534    -0.292     3.904  H    
     29 H           5.062    -0.941     1.635  H    
     30 H           4.356     0.396     2.552  H    
     31 H           4.001     0.233     0.830  H    
     32 H           3.125    -1.009    -3.640  H    
     33 H           6.524    -2.139    -3.544  H    
     34 H           7.820    -2.654    -5.512  H    
     35 H           6.708    -2.762    -7.689  H    
     36 H           3.073    -1.859    -5.991  H    
@<TRIPOS>BOND
     1    1    2 1
     2    2    7 ar
     3    2    3 ar
     4    3    4 ar
     5    4    5 ar
     6    5    6 ar
     7    5    9 1
     8    6    7 ar
     9    6    8 1
    10    9   21 1
    11    9   10 1
    12   10   11 2
    13   10   12 1
    14   12   13 2
    15   12   20 1
    16   13   14 1
    17   14   19 ar
    18   14   15 ar
    19   15   16 ar
    20   16   17 ar
    21   17   18 ar
    22   18   19 ar
    23   20   21 1
    24   21   22 2
    25    1   23 1
    26    1   24 1
    27    1   25 1
    28    3   26 1
    29    4   27 1
    30    7   28 1
    31    8   29 1
    32    8   30 1
    33    8   31 1
    34   13   32 1
    35   15   33 1
    36   16   34 1
    37   17   35 1
    38   19   36 1
@<TRIPOS>MOLECULE
ZINC01168896
 36 39 0 0 0
SMALL
NO_CHARGES


@<TRIPOS>ATOM
      1 C           8.974   -10.178    -4.376  C    
      2 S           7.432   -11.119    -4.373  S    
      3 C           6.281    -9.910    -4.760  C    
      4 N           6.554    -8.659    -4.895  N    
      5 C           5.657    -7.778    -5.180  C    
      6 C           4.379    -8.171    -5.353  C    
      7 N           4.186    -9.439    -5.199  N    
      8 N           5.055   -10.268    -4.921  N    
      9 C           3.288    -7.335    -5.682  C    
     10 C           2.133    -7.922    -6.283  C    
     11 C           1.006    -7.163    -6.641  C    
     12 C           1.000    -5.777    -6.420  C    
     13 C           2.122    -5.166    -5.836  C    
     14 C           3.259    -5.919    -5.458  C    
     15 N           4.244    -5.164    -4.907  N    
     16 C           5.502    -5.590    -4.390  C    
     17 O           6.103    -6.525    -5.302  O    
     18 C           6.450    -4.461    -4.222  C    
     19 C           7.698    -4.662    -3.588  C    
     20 C           8.587    -3.578    -3.444  C    
     21 C           8.229    -2.304    -3.934  C    
     22 C           6.972    -2.137    -4.544  C    
     23 N           6.143    -3.207    -4.668  N    
     24 Br         -0.464    -7.985    -7.437  Br   
     25 H           9.125    -9.706    -5.346  H    
     26 H           9.803   -10.857    -4.180  H    
     27 H           8.949    -9.416    -3.597  H    
     28 H           2.104    -8.925    -6.498  H    
     29 H           0.190    -5.216    -6.694  H    
     30 H           2.096    -4.152    -5.687  H    
     31 H           4.073    -4.207    -4.863  H    
     32 H           5.336    -6.022    -3.397  H    
     33 H           7.962    -5.584    -3.225  H    
     34 H           9.496    -3.712    -2.992  H    
     35 H           8.873    -1.512    -3.844  H    
     36 H           6.685    -1.222    -4.908  H    
@<TRIPOS>BOND
     1    1    2 1
     2    2    3 1
     3    3    8 ar
     4    3    4 ar
     5    4    5 ar
     6    5   17 1
     7    5    6 ar
     8    6    7 ar
     9    6    9 1
    10    7    8 ar
    11    9   14 ar
    12    9   10 ar
    13   10   11 ar
    14   11   12 ar
    15   11   24 1
    16   12   13 ar
    17   13   14 ar
    18   14   15 1
    19   15   16 1
    20   16   17 1
    21   16   18 1
    22   18   23 ar
    23   18   19 ar
    24   19   20 ar
    25   20   21 ar
    26   21   22 ar
    27   22   23 ar
    28    1   25 1
    29    1   26 1
    30    1   27 1
    31   10   28 1
    32   12   29 1
    33   13   30 1
    34   15   31 1
    35   16   32 1
    36   19   33 1
    37   20   34 1
    38   21   35 1
    39   22   36 1
@<TRIPOS>MOLECULE
ZINC01188062
 34 36 0 0 0
SMALL
NO_CHARGES


@<TRIPOS>ATOM
      1 C          -0.370    -1.641    -4.496  C    
      2 C          -1.720    -2.035    -4.423  C    
      3 C          -2.303    -2.345    -3.176  C    
      4 C          -1.530    -2.252    -2.002  C    
      5 C          -0.181    -1.859    -2.069  C    
      6 C           0.412    -1.561    -3.320  C    
      7 C           1.736    -1.177    -3.395  C    
      8 C           2.782    -2.009    -3.563  C    
      9 C           2.802    -3.358    -3.670  C    
     10 O           1.777    -4.029    -3.629  O    
     11 N           4.013    -3.889    -3.811  N    
     12 C           4.945    -2.924    -3.802  C    
     13 S           6.643    -3.058    -3.855  S    
     14 S           4.346    -1.343    -3.667  S    
     15 C           4.258    -5.323    -3.960  C    
     16 C           4.926    -5.728    -5.308  C    
     17 C           5.332    -7.212    -5.205  C    
     18 S           5.875    -7.405    -3.500  S    
     19 O           5.331    -8.763    -2.875  O    
     20 O           7.454    -7.233    -3.408  O    
     21 C           5.055    -5.966    -2.792  C    
     22 F          -3.553    -2.712    -3.112  F    
     23 H           0.036    -1.418    -5.409  H    
     24 H          -2.275    -2.096    -5.278  H    
     25 H          -1.947    -2.472    -1.096  H    
     26 H           0.367    -1.795    -1.206  H    
     27 H           1.910    -0.201    -3.335  H    
     28 H           3.298    -5.855    -3.965  H    
     29 H           4.232    -5.583    -6.141  H    
     30 H           5.819    -5.135    -5.505  H    
     31 H           4.465    -7.855    -5.385  H    
     32 H           6.129    -7.467    -5.907  H    
     33 H           5.811    -5.298    -2.383  H    
     34 H           4.392    -6.273    -1.982  H    
@<TRIPOS>BOND
     1    1    6 ar
     2    1    2 ar
     3    2    3 ar
     4    3    4 ar
     5    3   22 1
     6    4    5 ar
     7    5    6 ar
     8    6    7 1
     9    7    8 2
    10    8   14 1
    11    8    9 1
    12    9   10 2
    13    9   11 1
    14   11   12 1
    15   11   15 1
    16   12   13 2
    17   12   14 1
    18   15   21 1
    19   15   16 1
    20   16   17 1
    21   17   18 1
    22   18   19 2
    23   18   20 2
    24   18   21 1
    25    1   23 1
    26    2   24 1
    27    4   25 1
    28    5   26 1
    29    7   27 1
    30   15   28 1
    31   16   29 1
    32   16   30 1
    33   17   31 1
    34   17   32 1
    35   21   33 1
    36   21   34 1
@<TRIPOS>MOLECULE
ZINC01189480
 59 64 0 0 0
SMALL
NO_CHARGES


@<TRIPOS>ATOM
      1 C           5.457    -2.698    -8.999  C    
      2 C           6.084    -3.353    -7.744  C    
      3 C           6.654    -2.130    -6.968  C    
      4 C           7.166    -1.241    -8.113  C    
      5 C           5.777    -1.196    -8.769  C    
      6 C           4.907    -0.619    -7.621  C    
      7 C           5.499    -1.275    -6.330  C    
      8 C           4.655     0.420    -4.705  C    
      9 C           5.047     1.574    -3.755  C    
     10 C           7.135     0.414    -3.194  C    
     11 C           6.777    -0.707    -4.206  C    
     12 C           6.066     2.079    -1.502  C    
     13 C           6.302     3.615    -1.802  C    
     14 C           7.800     3.906    -2.135  C    
     15 C           8.696     3.533    -0.912  C    
     16 C           8.270     4.365     0.338  C    
     17 C           6.779     4.054     0.672  C    
     18 C           5.894     4.459    -0.547  C    
     19 C           6.605     2.526     0.964  C    
     20 C           7.022     1.694    -0.299  C    
     21 C           8.529     2.019    -0.589  C    
     22 N           5.870    -0.234    -5.303  N    
     23 N           5.925     1.087    -2.641  N    
     24 H           4.382    -2.873    -9.065  H    
     25 H           5.938    -3.066    -9.909  H    
     26 H           5.344    -3.908    -7.158  H    
     27 H           6.893    -4.037    -8.025  H    
     28 H           7.429    -2.455    -6.276  H    
     29 H           7.520    -0.257    -7.787  H    
     30 H           7.934    -1.721    -8.728  H    
     31 H           5.736    -0.606    -9.687  H    
     32 H           5.022     0.469    -7.608  H    
     33 H           3.848    -0.856    -7.745  H    
     34 H           4.767    -1.956    -5.878  H    
     35 H           4.064    -0.316    -4.148  H    
     36 H           4.019     0.840    -5.484  H    
     37 H           5.564     2.345    -4.336  H    
     38 H           4.129     2.005    -3.347  H    
     39 H           7.682    -0.077    -2.392  H    
     40 H           7.787     1.140    -3.688  H    
     41 H           7.726    -1.047    -4.624  H    
     42 H           6.314    -1.541    -3.669  H    
     43 H           5.050     2.019    -1.084  H    
     44 H           5.678     3.945    -2.635  H    
     45 H           8.109     3.344    -3.020  H    
     46 H           7.926     4.969    -2.370  H    
     47 H           9.743     3.745    -1.148  H    
     48 H           8.907     4.110     1.191  H    
     49 H           8.398     5.433     0.135  H    
     50 H           6.477     4.630     1.550  H    
     51 H           6.016     5.523    -0.760  H    
     52 H           4.839     4.297    -0.312  H    
     53 H           7.222     2.238     1.822  H    
     54 H           5.566     2.315     1.233  H    
     55 H           6.909     0.628    -0.074  H    
     56 H           8.930     1.439    -1.415  H    
     57 H           9.136     1.759     0.286  H    
     58 H           6.377     0.502    -5.799  H    
     59 H           5.393     0.321    -2.220  H    
@<TRIPOS>BOND
     1    1    5 1
     2    1    2 1
     3    2    3 1
     4    3    7 1
     5    3    4 1
     6    4    5 1
     7    5    6 1
     8    6    7 1
     9    7   22 1
    10    8    9 1
    11    8   22 1
    12    9   23 1
    13   10   11 1
    14   10   23 1
    15   11   22 1
    16   12   20 1
    17   12   13 1
    18   12   23 1
    19   13   18 1
    20   13   14 1
    21   14   15 1
    22   15   21 1
    23   15   16 1
    24   16   17 1
    25   17   18 1
    26   17   19 1
    27   19   20 1
    28   20   21 1
    29    1   24 1
    30    1   25 1
    31    2   26 1
    32    2   27 1
    33    3   28 1
    34    4   29 1
    35    4   30 1
    36    5   31 1
    37    6   32 1
    38    6   33 1
    39    7   34 1
    40    8   35 1
    41    8   36 1
    42    9   37 1
    43    9   38 1
    44   10   39 1
    45   10   40 1
    46   11   41 1
    47   11   42 1
    48   12   43 1
    49   13   44 1
    50   14   45 1
    51   14   46 1
    52   15   47 1
    53   16   48 1
    54   16   49 1
    55   17   50 1
    56   18   51 1
    57   18   52 1
    58   19   53 1
    59   19   54 1
    60   20   55 1
    61   21   56 1
    62   21   57 1
    63   22   58 1
    64   23   59 1
@<TRIPOS>MOLECULE
ZINC01199778
 41 44 0 0 0
SMALL
NO_CHARGES


@<TRIPOS>ATOM
      1 C           6.451    -8.025    -2.223  C    
      2 C           6.526    -7.656    -3.642  C    
      3 C           5.845    -8.341    -4.604  C    
      4 C           5.855    -8.205    -5.968  C    
      5 N           4.923    -8.941    -6.451  N    
      6 N           4.318    -9.571    -5.553  N    
      7 C           4.883    -9.278    -4.402  C    
      8 O           4.543    -9.788    -3.345  O    
      9 C           3.294   -10.426    -5.822  C    
     10 N           2.595   -11.157    -4.922  N    
     11 C           1.612   -11.945    -5.429  C    
     12 C           0.763   -12.781    -4.677  C    
     13 C          -0.228   -13.540    -5.336  C    
     14 C          -0.364   -13.468    -6.743  C    
     15 C           0.489   -12.637    -7.501  C    
     16 C           1.465   -11.883    -6.826  C    
     17 S           2.647   -10.775    -7.386  S    
     18 C           6.820    -7.605    -6.884  C    
     19 F           6.519    -7.825    -8.212  F    
     20 F           6.887    -6.245    -6.756  F    
     21 F           8.060    -8.156    -6.681  F    
     22 N           7.202    -6.558    -3.906  N    
     23 C           8.603    -6.482    -3.831  C    
     24 C           8.926    -4.993    -3.591  C    
     25 C           7.682    -4.278    -4.134  C    
     26 C           6.568    -5.307    -3.881  C    
     27 H           5.426    -7.922    -1.858  H    
     28 H           7.077    -7.396    -1.582  H    
     29 H           6.782    -9.059    -2.086  H    
     30 H           0.860   -12.834    -3.658  H    
     31 H          -0.852   -14.140    -4.797  H    
     32 H          -1.086   -14.019    -7.213  H    
     33 H           0.397   -12.579    -8.521  H    
     34 H           9.025    -7.079    -3.015  H    
     35 H           9.051    -6.818    -4.767  H    
     36 H           9.038    -4.794    -2.521  H    
     37 H           9.839    -4.675    -4.107  H    
     38 H           7.493    -3.332    -3.622  H    
     39 H           7.796    -4.088    -5.204  H    
     40 H           5.799    -5.226    -4.654  H    
     41 H           6.105    -5.124    -2.907  H    
@<TRIPOS>BOND
     1    1    2 1
     2    2    3 2
     3    2   22 1
     4    3    7 1
     5    3    4 1
     6    4    5 2
     7    4   18 1
     8    5    6 1
     9    6    7 1
    10    6    9 1
    11    7    8 2
    12    9   17 1
    13    9   10 2
    14   10   11 1
    15   11   16 ar
    16   11   12 ar
    17   12   13 ar
    18   13   14 ar
    19   14   15 ar
    20   15   16 ar
    21   16   17 1
    22   18   19 1
    23   18   20 1
    24   18   21 1
    25   22   26 1
    26   22   23 1
    27   23   24 1
    28   24   25 1
    29   25   26 1
    30    1   27 1
    31    1   28 1
    32    1   29 1
    33   12   30 1
    34   13   31 1
    35   14   32 1
    36   15   33 1
    37   23   34 1
    38   23   35 1
    39   24   36 1
    40   24   37 1
    41   25   38 1
    42   25   39 1
    43   26   40 1
    44   26   41 1
@<TRIPOS>MOLECULE
ZINC01204631
 17 17 0 0 0
SMALL
NO_CHARGES


@<TRIPOS>ATOM
      1 C           0.443    -2.607    -0.871  C    
      2 C          -0.759    -3.186    -1.058  C    
      3 C          -0.838    -4.236    -1.925  C    
      4 O          -1.899    -4.808    -2.136  O    
      5 N           0.253    -4.660    -2.559  N    
      6 C           1.440    -4.087    -2.376  C    
      7 O           2.377    -4.566    -3.004  O    
      8 N           1.563    -3.047    -1.526  N    
      9 C           2.825    -2.374    -1.291  C    
     10 C           3.372    -2.698     0.041  C    
     11 O           3.694    -3.973     0.354  O    
     12 I          -2.387    -2.493    -0.064  I    
     13 O           3.561    -1.729     0.964  O    
     14 H           0.501    -1.839    -0.243  H    
     15 H           0.178    -5.410    -3.171  H    
     16 H           3.588    -2.646    -2.029  H    
     17 H           2.685    -1.292    -1.385  H    
@<TRIPOS>BOND
     1    1    8 1
     2    1    2 2
     3    2    3 1
     4    2   12 1
     5    3    4 2
     6    3    5 1
     7    5    6 1
     8    6    7 2
     9    6    8 1
    10    8    9 1
    11    9   10 1
    12   10   11 2
    13   10   13 1
    14    1   14 1
    15    5   15 1
    16    9   16 1
    17    9   17 1
@<TRIPOS>MOLECULE
ZINC00027562
 40 42 0 0 0
SMALL
NO_CHARGES


@<TRIPOS>ATOM
      1 C           6.523   -10.809    -1.495  C    
      2 C           6.057    -9.627    -0.735  C    
      3 C           6.059    -9.598     0.676  C    
      4 C           5.606    -8.462     1.374  C    
      5 C           5.125    -7.324     0.681  C    
      6 C           5.135    -7.361    -0.730  C    
      7 C           5.591    -8.491    -1.431  C    
      8 N           4.661    -6.161     1.241  N    
      9 C           4.396    -5.838     2.500  C    
     10 O           4.460    -6.622     3.435  O    
     11 C           3.891    -4.508     2.771  C    
     12 C           4.776    -3.306     2.373  C    
     13 C           4.590    -3.660     3.856  C    
     14 C           3.740    -2.765     4.793  C    
     15 C           4.468    -1.443     5.175  C    
     16 C           3.979    -0.260     4.486  C    
     17 C           4.136     0.049     3.187  C    
     18 C           4.830    -0.729     2.173  C    
     19 C           4.118    -2.049     1.755  C    
     20 H           5.717   -11.178    -2.133  H    
     21 H           6.845   -11.621    -0.837  H    
     22 H           7.371   -10.528    -2.122  H    
     23 H           6.399   -10.403     1.207  H    
     24 H           5.637    -8.483     2.390  H    
     25 H           4.806    -6.556    -1.268  H    
     26 H           5.572    -8.484    -2.455  H    
     27 H           4.487    -5.452     0.604  H    
     28 H           2.814    -4.357     2.668  H    
     29 H           5.773    -3.560     1.993  H    
     30 H           5.483    -4.109     4.309  H    
     31 H           2.758    -2.556     4.364  H    
     32 H           3.565    -3.347     5.703  H    
     33 H           4.322    -1.286     6.251  H    
     34 H           5.547    -1.529     5.030  H    
     35 H           3.501     0.409     5.045  H    
     36 H           3.762     0.923     2.896  H    
     37 H           4.910    -0.104     1.276  H    
     38 H           5.857    -0.919     2.496  H    
     39 H           4.203    -2.167     0.671  H    
     40 H           3.048    -2.003     1.979  H    
@<TRIPOS>BOND
     1    1    2 1
     2    2    7 ar
     3    2    3 ar
     4    3    4 ar
     5    4    5 ar
     6    5    6 ar
     7    5    8 1
     8    6    7 ar
     9    8    9 1
    10    9   10 2
    11    9   11 1
    12   11   13 1
    13   11   12 1
    14   12   19 1
    15   12   13 1
    16   13   14 1
    17   14   15 1
    18   15   16 1
    19   16   17 2
    20   17   18 1
    21   18   19 1
    22    1   20 1
    23    1   21 1
    24    1   22 1
    25    3   23 1
    26    4   24 1
    27    6   25 1
    28    7   26 1
    29    8   27 1
    30   11   28 1
    31   12   29 1
    32   13   30 1
    33   14   31 1
    34   14   32 1
    35   15   33 1
    36   15   34 1
    37   16   35 1
    38   17   36 1
    39   18   37 1
    40   18   38 1
    41   19   39 1
    42   19   40 1
@<TRIPOS>MOLECULE
ZINC00029197
 27 28 0 0 0
SMALL
NO_CHARGES


@<TRIPOS>ATOM
      1 C           5.326    -9.783    -0.857  C    
      2 C           6.317    -8.916    -0.361  C    
      3 C           5.998    -7.575    -0.071  C    
      4 C           4.691    -7.078    -0.263  C    
      5 C           3.703    -7.967    -0.753  C    
      6 C           4.018    -9.307    -1.054  C    
      7 N           4.474    -5.762     0.024  N    
      8 S           2.979    -4.997     0.188  S    
      9 O           2.210    -4.977    -1.206  O    
     10 O           2.130    -5.737     1.313  O    
     11 C           3.293    -3.365     0.707  C    
     12 C           3.503    -3.078     2.073  C    
     13 C           3.778    -1.764     2.493  C    
     14 C           3.855    -0.721     1.549  C    
     15 C           3.656    -1.002     0.184  C    
     16 C           3.380    -2.317    -0.234  C    
     17 F           4.118     0.499     1.938  F    
     18 H           5.558   -10.757    -1.077  H    
     19 H           7.269    -9.264    -0.216  H    
     20 H           6.739    -6.966     0.287  H    
     21 H           2.746    -7.653    -0.917  H    
     22 H           3.300    -9.935    -1.424  H    
     23 H           5.249    -5.223     0.247  H    
     24 H           3.462    -3.822     2.772  H    
     25 H           3.927    -1.570     3.485  H    
     26 H           3.717    -0.253    -0.508  H    
     27 H           3.249    -2.501    -1.230  H    
@<TRIPOS>BOND
     1    1    6 ar
     2    1    2 ar
     3    2    3 ar
     4    3    4 ar
     5    4    5 ar
     6    4    7 1
     7    5    6 ar
     8    7    8 1
     9    8    9 2
    10    8   10 2
    11    8   11 1
    12   11   16 ar
    13   11   12 ar
    14   12   13 ar
    15   13   14 ar
    16   14   15 ar
    17   14   17 1
    18   15   16 ar
    19    1   18 1
    20    2   19 1
    21    3   20 1
    22    5   21 1
    23    6   22 1
    24    7   23 1
    25   12   24 1
    26   13   25 1
    27   15   26 1
    28   16   27 1
@<TRIPOS>MOLECULE
ZINC00032630
 42 45 0 0 0
SMALL
NO_CHARGES


@<TRIPOS>ATOM
      1 C           5.560    -2.493    -6.581  C    
      2 C           5.901    -2.129    -5.204  C    
      3 C           6.643    -1.026    -4.936  C    
      4 C           7.178    -0.115    -5.830  C    
      5 C           7.505     1.207    -5.520  C    
      6 C           8.004     1.788    -6.673  C    
      7 C           7.988     0.803    -7.646  C    
      8 O           7.482    -0.341    -7.132  O    
      9 C           5.380    -2.961    -4.086  C    
     10 C           4.467    -2.161    -3.225  C    
     11 C           3.308    -1.415    -3.450  C    
     12 N           2.980    -0.827    -2.285  N    
     13 N           3.831    -1.177    -1.375  N    
     14 C           4.760    -1.991    -1.886  C    
     15 O           5.855    -2.528    -1.266  O    
     16 C           6.631    -3.374    -1.989  C    
     17 C           6.488    -3.595    -3.321  C    
     18 C           7.221    -4.460    -3.941  C    
     19 N           7.870    -5.225    -4.489  N    
     20 N           7.568    -3.918    -1.285  N    
     21 C           2.596    -1.210    -4.649  C    
     22 C           2.192    -2.292    -5.463  C    
     23 C           1.475    -2.066    -6.651  C    
     24 C           1.155    -0.760    -7.048  C    
     25 C           1.537     0.323    -6.243  C    
     26 C           2.240     0.101    -5.046  C    
     27 H           5.021    -1.666    -7.048  H    
     28 H           4.932    -3.380    -6.660  H    
     29 H           6.474    -2.699    -7.140  H    
     30 H           6.798    -0.792    -3.985  H    
     31 H           7.368     1.693    -4.632  H    
     32 H           8.313     2.757    -6.788  H    
     33 H           8.312     0.925    -8.602  H    
     34 H           4.739    -3.773    -4.443  H    
     35 H           3.817    -0.873    -0.457  H    
     36 H           8.171    -4.514    -1.682  H    
     37 H           7.640    -3.725    -0.371  H    
     38 H           2.386    -3.253    -5.188  H    
     39 H           1.176    -2.854    -7.225  H    
     40 H           0.641    -0.597    -7.914  H    
     41 H           1.308     1.274    -6.533  H    
     42 H           2.511     0.909    -4.488  H    
@<TRIPOS>BOND
     1    1    2 1
     2    2    3 2
     3    2    9 1
     4    3    4 1
     5    4    8 1
     6    4    5 2
     7    5    6 1
     8    6    7 2
     9    7    8 1
    10    9   17 1
    11    9   10 1
    12   10   14 2
    13   10   11 1
    14   11   12 2
    15   11   21 1
    16   12   13 1
    17   13   14 1
    18   14   15 1
    19   15   16 1
    20   16   17 2
    21   16   20 1
    22   17   18 1
    23   18   19 3
    24   21   26 ar
    25   21   22 ar
    26   22   23 ar
    27   23   24 ar
    28   24   25 ar
    29   25   26 ar
    30    1   27 1
    31    1   28 1
    32    1   29 1
    33    3   30 1
    34    5   31 1
    35    6   32 1
    36    7   33 1
    37    9   34 1
    38   13   35 1
    39   20   36 1
    40   20   37 1
    41   22   38 1
    42   23   39 1
    43   24   40 1
    44   25   41 1
    45   26   42 1
@<TRIPOS>MOLECULE
ZINC00036376
 32 33 0 0 0
SMALL
NO_CHARGES


@<TRIPOS>ATOM
      1 C           5.341    -9.138     1.662  C    
      2 C           4.324    -8.093     2.185  C    
      3 C           4.912    -6.769     2.369  C    
      4 O           5.873    -6.678     3.121  O    
      5 C           4.376    -5.593     1.840  C    
      6 C           2.980    -5.361     1.906  C    
      7 C           2.388    -4.164     1.432  C    
      8 C           0.993    -3.885     1.493  C    
      9 C           0.513    -2.714     1.003  C    
     10 C           1.355    -1.767     0.454  C    
     11 O           0.878    -0.595    -0.023  O    
     12 O           2.692    -2.017     0.402  O    
     13 C           3.251    -3.182     0.872  C    
     14 C           4.652    -3.373     0.795  C    
     15 C           5.206    -4.586     1.279  C    
     16 O           6.549    -4.783     1.163  O    
     17 C           5.488    -2.294     0.203  C    
     18 C           0.049    -4.838     2.077  C    
     19 H           5.786    -8.799     0.721  H    
     20 H           4.830   -10.087     1.478  H    
     21 H           6.133    -9.305     2.397  H    
     22 H           3.491    -8.059     1.475  H    
     23 H           3.927    -8.443     3.147  H    
     24 H           2.387    -6.070     2.343  H    
     25 H          -0.461    -2.507     1.027  H    
     26 H           6.680    -5.759     1.141  H    
     27 H           5.159    -2.099    -0.823  H    
     28 H           6.549    -2.544     0.164  H    
     29 H           5.380    -1.380     0.789  H    
     30 H           0.097    -5.785     1.533  H    
     31 H          -0.991    -4.500     2.047  H    
     32 H           0.303    -5.011     3.126  H    
@<TRIPOS>BOND
     1    1    2 1
     2    2    3 1
     3    3    4 2
     4    3    5 1
     5    5   15 ar
     6    5    6 ar
     7    6    7 ar
     8    7   13 ar
     9    7    8 1
    10    8    9 2
    11    8   18 1
    12    9   10 1
    13   10   11 2
    14   10   12 1
    15   12   13 1
    16   13   14 ar
    17   14   15 ar
    18   14   17 1
    19   15   16 1
    20    1   19 1
    21    1   20 1
    22    1   21 1
    23    2   22 1
    24    2   23 1
    25    6   24 1
    26    9   25 1
    27   16   26 1
    28   17   27 1
    29   17   28 1
    30   17   29 1
    31   18   30 1
    32   18   31 1
    33   18   32 1
@<TRIPOS>MOLECULE
ZINC00039101
 30 31 0 0 0
SMALL
NO_CHARGES


@<TRIPOS>ATOM
      1 C           1.201    -1.232    -1.507  C    
      2 N           2.453    -1.305    -0.815  N    
      3 C           3.315    -2.345    -0.848  C    
      4 C           4.431    -2.075    -0.058  C    
      5 C           4.217    -0.802     0.469  C    
      6 C           2.986    -0.350    -0.018  C    
      7 C           2.503     0.926     0.343  C    
      8 C           3.279     1.737     1.198  C    
      9 C           4.522     1.275     1.684  C    
     10 C           4.999    -0.002     1.322  C    
     11 C           5.582    -2.987     0.156  C    
     12 C           6.578    -2.984    -1.037  C    
     13 C           7.334    -1.718    -1.138  C    
     14 O           8.236    -1.371    -0.193  O    
     15 O           7.107    -0.856    -2.153  O    
     16 N           7.528    -4.092    -0.901  N    
     17 H           0.389    -1.095    -0.787  H    
     18 H           0.999    -2.138    -2.081  H    
     19 H           1.212    -0.385    -2.196  H    
     20 H           3.169    -3.210    -1.367  H    
     21 H           1.603     1.268    -0.010  H    
     22 H           2.944     2.663     1.465  H    
     23 H           5.080     1.868     2.300  H    
     24 H           5.902    -0.332     1.673  H    
     25 H           6.109    -2.722     1.079  H    
     26 H           5.184    -3.993     0.297  H    
     27 H           6.033    -3.165    -1.968  H    
     28 H           8.047    -3.996    -0.027  H    
     29 H           8.181    -4.086    -1.687  H    
     30 H           7.019    -4.977    -0.897  H    
@<TRIPOS>BOND
     1    1    2 1
     2    2    6 1
     3    2    3 1
     4    3    4 2
     5    4    5 1
     6    4   11 1
     7    5   10 ar
     8    5    6 ar
     9    6    7 ar
    10    7    8 ar
    11    8    9 ar
    12    9   10 ar
    13   11   12 1
    14   12   13 1
    15   12   16 1
    16   13   14 2
    17   13   15 1
    18    1   17 1
    19    1   18 1
    20    1   19 1
    21    3   20 1
    22    7   21 1
    23    8   22 1
    24    9   23 1
    25   10   24 1
    26   11   25 1
    27   11   26 1
    28   12   27 1
    29   16   28 1
    30   16   29 1
    31   16   30 1
@<TRIPOS>MOLECULE
ZINC00046816
 29 30 0 0 0
SMALL
NO_CHARGES


@<TRIPOS>ATOM
      1 C           5.141    -8.233    -2.891  C    
      2 C           5.893    -7.223    -1.993  C    
      3 C           5.099    -6.800    -0.836  C    
      4 C           4.517    -5.583    -0.639  C    
      5 N           3.852    -5.347     0.549  N    
      6 C           3.760    -6.326     1.469  C    
      7 O           3.192    -6.213     2.549  O    
      8 N           4.325    -7.496     1.209  N    
      9 N           4.955    -7.700     0.112  N    
     10 C           3.282    -4.126     0.832  C    
     11 C           1.904    -3.910     0.606  C    
     12 C           1.325    -2.659     0.890  C    
     13 C           2.117    -1.616     1.403  C    
     14 C           3.491    -1.822     1.633  C    
     15 C           4.070    -3.073     1.350  C    
     16 Br          4.539    -0.442     2.311  Br   
     17 S           4.561    -4.370    -1.867  S    
     18 H           4.887    -9.136    -2.332  H    
     19 H           5.773    -8.517    -3.735  H    
     20 H           4.224    -7.786    -3.279  H    
     21 H           6.818    -7.688    -1.640  H    
     22 H           6.200    -6.382    -2.616  H    
     23 H           4.266    -8.211     1.863  H    
     24 H           5.341    -8.543    -0.016  H    
     25 H           1.321    -4.662     0.230  H    
     26 H           0.328    -2.509     0.722  H    
     27 H           1.694    -0.709     1.608  H    
     28 H           5.069    -3.218     1.518  H    
     29 H           3.829    -5.115    -2.740  H    
@<TRIPOS>BOND
     1    1    2 1
     2    2    3 1
     3    3    9 1
     4    3    4 2
     5    4    5 1
     6    4   17 1
     7    5    6 1
     8    5   10 1
     9    6    7 2
    10    6    8 1
    11    8    9 1
    12   10   15 ar
    13   10   11 ar
    14   11   12 ar
    15   12   13 ar
    16   13   14 ar
    17   14   15 ar
    18   14   16 1
    19    1   18 1
    20    1   19 1
    21    1   20 1
    22    2   21 1
    23    2   22 1
    24    8   23 1
    25    9   24 1
    26   11   25 1
    27   12   26 1
    28   13   27 1
    29   15   28 1
    30   17   29 1
@<TRIPOS>MOLECULE
ZINC00049190
 33 35 0 0 0
SMALL
NO_CHARGES


@<TRIPOS>ATOM
      1 C          -0.946    -9.807    -0.071  C    
      2 C           0.457    -9.794    -0.719  C    
      3 C           0.798    -8.473    -1.301  C    
      4 C           0.553    -8.193    -2.665  C    
      5 C           0.884    -6.942    -3.215  C    
      6 C           1.471    -5.943    -2.414  C    
      7 C           1.719    -6.212    -1.054  C    
      8 C           1.385    -7.462    -0.504  C    
      9 S           1.835    -4.390    -3.099  S    
     10 O           2.458    -3.351    -2.068  O    
     11 O           2.939    -4.627    -4.221  O    
     12 N           0.480    -3.716    -3.841  N    
     13 C          -0.687    -3.425    -3.253  C    
     14 C          -1.175    -3.500    -1.935  C    
     15 C          -2.504    -3.096    -1.680  C    
     16 C          -3.321    -2.628    -2.734  C    
     17 C          -2.815    -2.562    -4.051  C    
     18 C          -1.492    -2.969    -4.282  C    
     19 N          -0.755    -3.025    -5.396  N    
     20 N           0.387    -3.470    -5.087  N    
     21 H          -1.005    -9.074     0.737  H    
     22 H          -1.145   -10.798     0.344  H    
     23 H          -1.714    -9.581    -0.815  H    
     24 H           1.198   -10.070     0.037  H    
     25 H           0.492   -10.569    -1.489  H    
     26 H           0.129    -8.900    -3.270  H    
     27 H           0.690    -6.764    -4.204  H    
     28 H           2.141    -5.501    -0.453  H    
     29 H           1.579    -7.633     0.485  H    
     30 H          -0.583    -3.838    -1.173  H    
     31 H          -2.876    -3.141    -0.732  H    
     32 H          -4.279    -2.337    -2.542  H    
     33 H          -3.401    -2.227    -4.817  H    
@<TRIPOS>BOND
     1    1    2 1
     2    2    3 1
     3    3    8 ar
     4    3    4 ar
     5    4    5 ar
     6    5    6 ar
     7    6    7 ar
     8    6    9 1
     9    7    8 ar
    10    9   10 2
    11    9   11 2
    12    9   12 1
    13   12   20 1
    14   12   13 1
    15   13   18 ar
    16   13   14 ar
    17   14   15 ar
    18   15   16 ar
    19   16   17 ar
    20   17   18 ar
    21   18   19 1
    22   19   20 2
    23    1   21 1
    24    1   22 1
    25    1   23 1
    26    2   24 1
    27    2   25 1
    28    4   26 1
    29    5   27 1
    30    7   28 1
    31    8   29 1
    32   14   30 1
    33   15   31 1
    34   16   32 1
    35   17   33 1
@<TRIPOS>MOLECULE
ZINC00054786
 27 28 0 0 0
SMALL
NO_CHARGES


@<TRIPOS>ATOM
      1 C           5.849    -4.554     3.875  C    
      2 C           5.312    -4.043     2.627  C    
      3 O           5.720    -2.949     2.254  O    
      4 C           4.460    -4.770     1.807  C    
      5 C           3.672    -4.326     0.725  C    
      6 C           3.118    -5.465     0.150  C    
      7 C           2.264    -5.645    -0.957  C    
      8 C           1.850    -6.954    -1.287  C    
      9 C           2.283    -8.057    -0.516  C    
     10 C           3.130    -7.862     0.595  C    
     11 C           3.538    -6.554     0.909  C    
     12 O           4.345    -6.121     1.901  O    
     13 N           3.419    -3.079     0.240  N    
     14 C           3.155    -1.979     0.940  C    
     15 O           3.088    -1.977     2.164  O    
     16 C           2.844    -0.767     0.221  C    
     17 H           6.933    -4.665     3.796  H    
     18 H           5.424    -5.522     4.149  H    
     19 H           5.628    -3.852     4.680  H    
     20 H           1.945    -4.847    -1.510  H    
     21 H           1.234    -7.101    -2.089  H    
     22 H           1.980    -9.001    -0.761  H    
     23 H           3.451    -8.654     1.156  H    
     24 H           3.310    -3.008    -0.723  H    
     25 H           3.667    -0.520    -0.456  H    
     26 H           2.694     0.077     0.902  H    
     27 H           1.931    -0.908    -0.366  H    
@<TRIPOS>BOND
     1    1    2 1
     2    2    3 2
     3    2    4 1
     4    4   12 1
     5    4    5 2
     6    5    6 1
     7    5   13 1
     8    6   11 ar
     9    6    7 ar
    10    7    8 ar
    11    8    9 ar
    12    9   10 ar
    13   10   11 ar
    14   11   12 1
    15   13   14 1
    16   14   15 2
    17   14   16 1
    18    1   17 1
    19    1   18 1
    20    1   19 1
    21    7   20 1
    22    8   21 1
    23    9   22 1
    24   10   23 1
    25   13   24 1
    26   16   25 1
    27   16   26 1
    28   16   27 1
@<TRIPOS>MOLECULE
ZINC00057197
 20 20 0 0 0
SMALL
NO_CHARGES


@<TRIPOS>ATOM
      1 C           6.133    -2.988     2.395  C    
      2 C           5.390    -4.230     2.161  C    
      3 O           5.358    -5.163     3.143  O    
      4 O           4.799    -4.447     0.954  O    
      5 C           4.034    -5.503     0.537  C    
      6 C           2.930    -6.034     1.264  C    
      7 C           2.290    -7.196     0.768  C    
      8 C           2.692    -7.789    -0.440  C    
      9 C           3.737    -7.219    -1.183  C    
     10 C           4.400    -6.077    -0.704  C    
     11 Br          5.804    -5.381    -1.716  Br   
     12 Br          1.820    -9.305    -1.074  Br   
     13 C           2.408    -5.401     2.422  C    
     14 O           1.617    -6.061     3.305  O    
     15 O           2.479    -4.057     2.573  O    
     16 H           5.702    -2.461     3.250  H    
     17 H           6.084    -2.339     1.517  H    
     18 H           7.180    -3.219     2.607  H    
     19 H           1.497    -7.607     1.266  H    
     20 H           4.017    -7.640    -2.073  H    
@<TRIPOS>BOND
     1    1    2 1
     2    2    3 2
     3    2    4 1
     4    4    5 1
     5    5   10 ar
     6    5    6 ar
     7    6    7 ar
     8    6   13 1
     9    7    8 ar
    10    8    9 ar
    11    8   12 1
    12    9   10 ar
    13   10   11 1
    14   13   14 2
    15   13   15 1
    16    1   16 1
    17    1   17 1
    18    1   18 1
    19    7   19 1
    20    9   20 1
@<TRIPOS>MOLECULE
ZINC00064152
 36 37 0 0 0
SMALL
NO_CHARGES


@<TRIPOS>ATOM
      1 C           2.884    -2.405    -0.207  C    
      2 C           2.134    -1.354    -0.765  C    
      3 C           2.152    -0.078    -0.163  C    
      4 C           2.902     0.149     1.013  C    
      5 C           3.655    -0.915     1.589  C    
      6 C           3.646    -2.188     0.959  C    
      7 C           4.406    -0.771     2.749  C    
      8 C           3.912    -0.554     3.982  C    
      9 C           2.593    -0.460     4.311  C    
     10 O           1.919    -1.435     3.991  O    
     11 N           2.039     0.554     5.016  N    
     12 C           2.774     1.772     5.331  C    
     13 C           3.130     1.892     6.838  C    
     14 C           1.996     2.454     7.731  C    
     15 C           0.690     1.620     7.745  C    
     16 C          -0.008     1.500     6.363  C    
     17 C           0.638     0.447     5.416  C    
     18 Cl          2.913     1.733     1.641  Cl   
     19 H           2.873    -3.331    -0.646  H    
     20 H           1.593    -1.504    -1.619  H    
     21 H           1.619     0.682    -0.593  H    
     22 H           4.181    -2.974     1.350  H    
     23 H           5.387    -0.917     2.668  H    
     24 H           4.565    -0.472     4.730  H    
     25 H           3.716     1.841     4.777  H    
     26 H           2.197     2.642     5.006  H    
     27 H           3.440     0.915     7.219  H    
     28 H           3.985     2.566     6.942  H    
     29 H           2.371     2.518     8.759  H    
     30 H           1.761     3.474     7.408  H    
     31 H           0.897     0.626     8.147  H    
     32 H          -0.007     2.111     8.431  H    
     33 H          -1.044     1.193     6.534  H    
     34 H          -0.042     2.475     5.874  H    
     35 H           0.038     0.436     4.503  H    
     36 H           0.495    -0.521     5.908  H    
@<TRIPOS>BOND
     1    1    6 ar
     2    1    2 ar
     3    2    3 ar
     4    3    4 ar
     5    4    5 ar
     6    4   18 1
     7    5    6 ar
     8    5    7 1
     9    7    8 2
    10    8    9 1
    11    9   10 2
    12    9   11 1
    13   11   17 1
    14   11   12 1
    15   12   13 1
    16   13   14 1
    17   14   15 1
    18   15   16 1
    19   16   17 1
    20    1   19 1
    21    2   20 1
    22    3   21 1
    23    6   22 1
    24    7   23 1
    25    8   24 1
    26   12   25 1
    27   12   26 1
    28   13   27 1
    29   13   28 1
    30   14   29 1
    31   14   30 1
    32   15   31 1
    33   15   32 1
    34   16   33 1
    35   16   34 1
    36   17   35 1
    37   17   36 1
@<TRIPOS>MOLECULE
ZINC00065002
 26 27 0 0 0
SMALL
NO_CHARGES


@<TRIPOS>ATOM
      1 C           2.378     1.589    -2.110  C    
      2 C           2.743     1.298    -3.487  C    
      3 O           3.874     1.672    -3.773  O    
      4 C           1.972     0.654    -4.473  C    
      5 C           0.700     0.069    -4.323  C    
      6 N           0.306    -0.451    -5.493  N    
      7 C           1.281    -0.208    -6.369  C    
      8 N           2.307     0.460    -5.780  N    
      9 C           3.395     0.800    -6.531  C    
     10 C           3.452     0.463    -7.840  C    
     11 C           2.412    -0.217    -8.421  C    
     12 C           1.320    -0.563    -7.711  C    
     13 O          -0.052    -0.001    -3.191  O    
     14 C          -1.279    -0.539    -2.972  C    
     15 O          -1.980    -1.145    -3.959  O    
     16 C          -1.848    -0.444    -1.621  C    
     17 H           3.069     1.076    -1.436  H    
     18 H           1.372     1.293    -1.835  H    
     19 H           2.455     2.665    -1.933  H    
     20 H           4.155     1.296    -6.142  H    
     21 H           4.242     0.709    -8.387  H    
     22 H           2.462    -0.460    -9.381  H    
     23 H           0.568    -1.053    -8.130  H    
     24 H          -1.191    -0.944    -0.907  H    
     25 H          -2.831    -0.915    -1.584  H    
     26 H          -1.949     0.604    -1.337  H    
@<TRIPOS>BOND
     1    1    2 1
     2    2    3 2
     3    2    4 1
     4    4    8 1
     5    4    5 2
     6    5    6 1
     7    5   13 1
     8    6    7 2
     9    7   12 1
    10    7    8 1
    11    8    9 1
    12    9   10 2
    13   10   11 1
    14   11   12 2
    15   13   14 1
    16   14   15 2
    17   14   16 1
    18    1   17 1
    19    1   18 1
    20    1   19 1
    21    9   20 1
    22   10   21 1
    23   11   22 1
    24   12   23 1
    25   16   24 1
    26   16   25 1
    27   16   26 1
@<TRIPOS>MOLECULE
ZINC00073419
 37 37 0 0 0
SMALL
NO_CHARGES


@<TRIPOS>ATOM
      1 C           5.701    -8.893    -1.165  C    
      2 C           5.016    -7.638    -0.776  C    
      3 C           5.231    -6.433    -1.478  C    
      4 C           4.589    -5.231    -1.102  C    
      5 C           3.660    -5.255    -0.019  C    
      6 C           3.464    -6.457     0.722  C    
      7 C           4.142    -7.631     0.330  C    
      8 C           2.531    -6.508     1.882  C    
      9 N           2.949    -4.148     0.365  N    
     10 C           2.077    -3.458    -0.366  C    
     11 O           1.881    -3.784    -1.533  O    
     12 C           1.317    -2.350     0.250  C    
     13 C           0.382    -1.622    -0.779  C    
     14 C           0.416    -2.917     1.399  C    
     15 C           2.311    -1.293     0.834  C    
     16 C           4.965    -4.000    -1.848  C    
     17 H           6.326    -9.240    -0.341  H    
     18 H           6.337    -8.758    -2.044  H    
     19 H           4.957    -9.660    -1.395  H    
     20 H           5.884    -6.426    -2.269  H    
     21 H           3.990    -8.501     0.852  H    
     22 H           2.859    -5.797     2.646  H    
     23 H           2.485    -7.499     2.341  H    
     24 H           1.524    -6.239     1.555  H    
     25 H           2.974    -3.934     1.311  H    
     26 H           0.968    -1.198    -1.599  H    
     27 H          -0.168    -0.807    -0.301  H    
     28 H          -0.349    -2.318    -1.202  H    
     29 H          -0.281    -3.664     1.006  H    
     30 H          -0.164    -2.118     1.869  H    
     31 H           1.020    -3.392     2.177  H    
     32 H           2.934    -1.732     1.619  H    
     33 H           1.772    -0.447     1.270  H    
     34 H           2.972    -0.907     0.052  H    
     35 H           6.050    -3.883    -1.847  H    
     36 H           4.549    -3.094    -1.412  H    
     37 H           4.621    -4.077    -2.880  H    
@<TRIPOS>BOND
     1    1    2 1
     2    2    7 ar
     3    2    3 ar
     4    3    4 ar
     5    4    5 ar
     6    4   16 1
     7    5    6 ar
     8    5    9 1
     9    6    7 ar
    10    6    8 1
    11    9   10 1
    12   10   11 2
    13   10   12 1
    14   12   13 1
    15   12   14 1
    16   12   15 1
    17    1   17 1
    18    1   18 1
    19    1   19 1
    20    3   20 1
    21    7   21 1
    22    8   22 1
    23    8   23 1
    24    8   24 1
    25    9   25 1
    26   13   26 1
    27   13   27 1
    28   13   28 1
    29   14   29 1
    30   14   30 1
    31   14   31 1
    32   15   32 1
    33   15   33 1
    34   15   34 1
    35   16   35 1
    36   16   36 1
    37   16   37 1
@<TRIPOS>MOLECULE
ZINC00074184
 44 48 0 0 0
SMALL
NO_CHARGES


@<TRIPOS>ATOM
      1 C           6.756   -11.160    -1.237  C    
      2 C           7.232   -11.437     0.108  C    
      3 O           8.071   -12.329     0.196  O    
      4 C           6.791   -10.792     1.275  C    
      5 C           6.821   -11.462     2.524  C    
      6 C           6.379   -10.833     3.700  C    
      7 C           5.923    -9.500     3.673  C    
      8 C           5.866    -8.806     2.440  C    
      9 C           6.314    -9.458     1.265  C    
     10 N           5.348    -7.531     2.343  N    
     11 C           5.821    -6.453     2.957  C    
     12 O           6.810    -6.418     3.678  O    
     13 C           5.100    -5.251     2.612  C    
     14 C           4.237    -4.581     3.741  C    
     15 C           3.531    -3.440     3.178  C    
     16 C           2.608    -3.892     2.314  C    
     17 C           2.674    -5.347     2.289  C    
     18 C           4.023    -5.786     1.618  C    
     19 C           4.308    -7.199     1.591  C    
     20 O           3.631    -7.976     0.926  O    
     21 C           3.019    -5.505     3.768  C    
     22 C           2.870    -6.778     4.611  C    
     23 C           1.965    -5.558     4.886  C    
     24 O           5.422    -8.909     4.807  O    
     25 C           6.353    -8.730     5.890  C    
     26 H           7.568   -10.732    -1.831  H    
     27 H           5.906   -10.475    -1.258  H    
     28 H           6.429   -12.092    -1.710  H    
     29 H           7.142   -12.431     2.587  H    
     30 H           6.381   -11.359     4.578  H    
     31 H           6.308    -8.927     0.391  H    
     32 H           5.772    -4.530     2.133  H    
     33 H           4.739    -4.403     4.694  H    
     34 H           3.608    -2.502     3.491  H    
     35 H           1.897    -3.341     1.898  H    
     36 H           1.769    -5.854     1.940  H    
     37 H           4.136    -5.356     0.615  H    
     38 H           2.383    -7.625     4.123  H    
     39 H           3.634    -6.952     5.369  H    
     40 H           2.196    -5.003     5.797  H    
     41 H           0.926    -5.671     4.569  H    
     42 H           6.598    -9.685     6.361  H    
     43 H           5.883    -8.095     6.640  H    
     44 H           7.276    -8.247     5.562  H    
@<TRIPOS>BOND
     1    1    2 1
     2    2    3 2
     3    2    4 1
     4    4    9 ar
     5    4    5 ar
     6    5    6 ar
     7    6    7 ar
     8    7    8 ar
     9    7   24 1
    10    8    9 ar
    11    8   10 1
    12   10   19 1
    13   10   11 1
    14   11   12 2
    15   11   13 1
    16   13   18 1
    17   13   14 1
    18   14   21 1
    19   14   15 1
    20   15   16 2
    21   16   17 1
    22   17   18 1
    23   17   21 1
    24   18   19 1
    25   19   20 2
    26   21   23 1
    27   21   22 1
    28   22   23 1
    29   24   25 1
    30    1   26 1
    31    1   27 1
    32    1   28 1
    33    5   29 1
    34    6   30 1
    35    9   31 1
    36   13   32 1
    37   14   33 1
    38   15   34 1
    39   16   35 1
    40   17   36 1
    41   18   37 1
    42   22   38 1
    43   22   39 1
    44   23   40 1
    45   23   41 1
    46   25   42 1
    47   25   43 1
    48   25   44 1
@<TRIPOS>MOLECULE
ZINC00079874
 44 45 0 0 0
SMALL
NO_CHARGES


@<TRIPOS>ATOM
      1 C           6.848   -10.740     1.264  C    
      2 C           6.118    -9.674     2.004  C    
      3 C           5.043    -9.026     1.367  C    
      4 C           4.296    -8.029     2.013  C    
      5 C           4.649    -7.607     3.319  C    
      6 C           5.753    -8.230     3.985  C    
      7 C           6.465    -9.280     3.323  C    
      8 Cl          7.748   -10.113     4.080  Cl   
      9 C           6.145    -7.780     5.355  C    
     10 S           3.774    -6.233     4.000  S    
     11 O           3.468    -6.400     5.554  O    
     12 O           2.294    -6.059     3.438  O    
     13 N           4.573    -4.765     3.710  N    
     14 C           4.567    -4.203     2.386  C    
     15 C           6.005    -3.756     1.995  C    
     16 O           6.583    -2.943     3.045  O    
     17 C           6.570    -3.509     4.377  C    
     18 C           5.138    -3.974     4.774  C    
     19 C           7.134    -2.459     5.364  C    
     20 C           6.920    -4.945     1.593  C    
     21 O           3.290    -7.421     1.305  O    
     22 C           2.092    -8.206     1.178  C    
     23 H           7.900   -10.469     1.171  H    
     24 H           6.461   -10.904     0.256  H    
     25 H           6.769   -11.683     1.808  H    
     26 H           4.790    -9.284     0.410  H    
     27 H           6.314    -6.705     5.358  H    
     28 H           7.061    -8.229     5.734  H    
     29 H           5.352    -8.027     6.061  H    
     30 H           4.192    -4.901     1.634  H    
     31 H           3.902    -3.334     2.381  H    
     32 H           5.922    -3.109     1.116  H    
     33 H           7.242    -4.373     4.405  H    
     34 H           4.495    -3.104     4.938  H    
     35 H           5.196    -4.524     5.715  H    
     36 H           8.151    -2.184     5.074  H    
     37 H           7.158    -2.865     6.380  H    
     38 H           6.518    -1.558     5.356  H    
     39 H           6.999    -5.677     2.398  H    
     40 H           7.921    -4.579     1.357  H    
     41 H           6.522    -5.445     0.708  H    
     42 H           2.254    -9.053     0.506  H    
     43 H           1.316    -7.574     0.747  H    
     44 H           1.734    -8.574     2.144  H    
@<TRIPOS>BOND
     1    1    2 1
     2    2    7 ar
     3    2    3 ar
     4    3    4 ar
     5    4    5 ar
     6    4   21 1
     7    5    6 ar
     8    5   10 1
     9    6    7 ar
    10    6    9 1
    11    7    8 1
    12   10   11 2
    13   10   12 2
    14   10   13 1
    15   13   18 1
    16   13   14 1
    17   14   15 1
    18   15   16 1
    19   15   20 1
    20   16   17 1
    21   17   18 1
    22   17   19 1
    23   21   22 1
    24    1   23 1
    25    1   24 1
    26    1   25 1
    27    3   26 1
    28    9   27 1
    29    9   28 1
    30    9   29 1
    31   14   30 1
    32   14   31 1
    33   15   32 1
    34   17   33 1
    35   18   34 1
    36   18   35 1
    37   19   36 1
    38   19   37 1
    39   19   38 1
    40   20   39 1
    41   20   40 1
    42   20   41 1
    43   22   42 1
    44   22   43 1
    45   22   44 1
@<TRIPOS>MOLECULE
ZINC00088568
 38 41 0 0 0
SMALL
NO_CHARGES


@<TRIPOS>ATOM
      1 C           5.080   -10.033    -1.689  C    
      2 C           3.792    -9.824    -2.093  C    
      3 C           3.016    -8.929    -1.444  C    
      4 N           3.495    -8.228    -0.363  N    
      5 C           4.797    -8.461     0.039  C    
      6 C           5.598    -9.372    -0.637  C    
      7 N           5.289    -7.789     1.101  N    
      8 C           4.578    -6.893     1.801  C    
      9 C           3.288    -6.652     1.433  C    
     10 C           2.766    -7.326     0.330  C    
     11 O           1.615    -7.078    -0.028  O    
     12 C           2.550    -5.765     2.183  C    
     13 C           3.047    -5.134     3.268  C    
     14 C           4.382    -5.392     3.634  C    
     15 N           5.151    -6.260     2.880  N    
     16 C           6.541    -6.511     3.252  C    
     17 C           6.619    -7.489     4.356  C    
     18 C           6.439    -8.866     4.256  C    
     19 C           6.599    -9.396     5.526  C    
     20 C           6.859    -8.325     6.372  C    
     21 O           6.877    -7.179     5.655  O    
     22 C           2.259    -4.271     3.964  C    
     23 O           2.048    -4.445     5.156  O    
     24 N           1.711    -3.232     3.373  N    
     25 N           4.888    -4.768     4.722  N    
     26 H           5.649   -10.687    -2.178  H    
     27 H           3.427   -10.340    -2.864  H    
     28 H           2.080    -8.805    -1.762  H    
     29 H           6.537    -9.528    -0.351  H    
     30 H           1.605    -5.585     1.921  H    
     31 H           7.147    -6.879     2.421  H    
     32 H           7.033    -5.583     3.551  H    
     33 H           6.240    -9.394     3.405  H    
     34 H           6.535   -10.381     5.790  H    
     35 H           7.027    -8.392     7.379  H    
     36 H           1.147    -2.628     3.880  H    
     37 H           1.867    -3.078     2.426  H    
     38 H           5.799    -4.919     5.014  H    
@<TRIPOS>BOND
     1    1    6 2
     2    1    2 1
     3    2    3 2
     4    3    4 1
     5    4   10 1
     6    4    5 1
     7    5    6 1
     8    5    7 2
     9    7    8 1
    10    8   15 1
    11    8    9 2
    12    9   10 1
    13    9   12 1
    14   10   11 2
    15   12   13 2
    16   13   14 1
    17   13   22 1
    18   14   15 1
    19   14   25 2
    20   15   16 1
    21   16   17 1
    22   17   21 1
    23   17   18 2
    24   18   19 1
    25   19   20 2
    26   20   21 1
    27   22   23 2
    28   22   24 1
    29    1   26 1
    30    2   27 1
    31    3   28 1
    32    6   29 1
    33   12   30 1
    34   16   31 1
    35   16   32 1
    36   18   33 1
    37   19   34 1
    38   20   35 1
    39   24   36 1
    40   24   37 1
    41   25   38 1
@<TRIPOS>MOLECULE
ZINC00107410
 36 37 0 0 0
SMALL
NO_CHARGES


@<TRIPOS>ATOM
      1 C           0.864     1.519     3.361  C    
      2 C           1.692     1.522     2.160  C    
      3 C           1.703     0.561     1.195  C    
      4 C           2.634     0.707     0.051  C    
      5 N           3.384     1.931     0.045  N    
      6 C           3.293     2.820     1.017  C    
      7 O           3.959     3.842     0.969  O    
      8 N           2.484     2.604     2.042  N    
      9 C           3.610    -0.424    -0.059  C    
     10 C           3.574    -1.277    -1.191  C    
     11 C           4.473    -2.353    -1.322  C    
     12 C           5.428    -2.596    -0.323  C    
     13 C           5.488    -1.763     0.809  C    
     14 C           4.586    -0.684     0.943  C    
     15 F           4.683     0.057     2.016  F    
     16 C           0.873    -0.525     1.224  C    
     17 O           1.364    -1.512     1.756  O    
     18 N          -0.386    -0.554     0.738  N    
     19 C          -1.147    -1.786     0.812  C    
     20 C          -0.993     0.622     0.149  C    
     21 H           1.504     1.571     4.245  H    
     22 H           0.234     0.634     3.461  H    
     23 H           0.211     2.395     3.353  H    
     24 H           2.026     0.759    -0.855  H    
     25 H           3.973     2.114    -0.707  H    
     26 H           2.451     3.278     2.744  H    
     27 H           2.887    -1.126    -1.936  H    
     28 H           4.429    -2.963    -2.149  H    
     29 H           6.083    -3.384    -0.418  H    
     30 H           6.189    -1.947     1.534  H    
     31 H          -0.621    -2.577     0.268  H    
     32 H          -2.151    -1.701     0.388  H    
     33 H          -1.250    -2.097     1.856  H    
     34 H          -1.026     1.430     0.884  H    
     35 H          -2.016     0.448    -0.198  H    
     36 H          -0.406     0.958    -0.709  H    
@<TRIPOS>BOND
     1    1    2 1
     2    2    8 1
     3    2    3 2
     4    3    4 1
     5    3   16 1
     6    4    5 1
     7    4    9 1
     8    5    6 1
     9    6    7 2
    10    6    8 1
    11    9   14 ar
    12    9   10 ar
    13   10   11 ar
    14   11   12 ar
    15   12   13 ar
    16   13   14 ar
    17   14   15 1
    18   16   17 2
    19   16   18 1
    20   18   19 1
    21   18   20 1
    22    1   21 1
    23    1   22 1
    24    1   23 1
    25    4   24 1
    26    5   25 1
    27    8   26 1
    28   10   27 1
    29   11   28 1
    30   12   29 1
    31   13   30 1
    32   19   31 1
    33   19   32 1
    34   19   33 1
    35   20   34 1
    36   20   35 1
    37   20   36 1
@<TRIPOS>MOLECULE
ZINC00110294
 37 39 0 0 0
SMALL
NO_CHARGES


@<TRIPOS>ATOM
      1 C           6.161   -10.890     2.649  C    
      2 O           6.682    -9.700     3.274  O    
      3 C           6.369    -8.556     2.592  C    
      4 C           5.127    -7.919     2.788  C    
      5 C           4.820    -6.737     2.090  C    
      6 C           5.759    -6.160     1.201  C    
      7 C           7.015    -6.793     1.031  C    
      8 C           7.319    -7.979     1.726  C    
      9 C           5.421    -4.910     0.467  C    
     10 C           6.221    -3.349     2.281  C    
     11 C           5.996    -2.055     2.975  C    
     12 C           6.849    -1.625     4.018  C    
     13 C           6.632    -0.383     4.646  C    
     14 C           5.566     0.438     4.225  C    
     15 C           4.724     0.021     3.178  C    
     16 C           4.939    -1.216     2.541  C    
     17 O           4.075    -1.579     1.534  O    
     18 C           4.570    -2.575     0.617  C    
     19 Cl          7.651     0.123     5.902  Cl   
     20 N           5.100    -3.754     1.367  N    
     21 H           5.059   -10.865     2.596  H    
     22 H           6.460   -11.746     3.263  H    
     23 H           6.572   -11.028     1.637  H    
     24 H           4.439    -8.320     3.432  H    
     25 H           3.907    -6.297     2.237  H    
     26 H           7.715    -6.398     0.400  H    
     27 H           8.230    -8.425     1.595  H    
     28 H           6.228    -4.626    -0.218  H    
     29 H           4.545    -5.141    -0.150  H    
     30 H           7.160    -3.272     1.721  H    
     31 H           6.338    -4.126     3.040  H    
     32 H           7.626    -2.220     4.322  H    
     33 H           5.396     1.340     4.676  H    
     34 H           3.954     0.625     2.877  H    
     35 H           3.726    -2.872    -0.012  H    
     36 H           5.338    -2.137    -0.029  H    
     37 H           4.334    -4.063     1.973  H    
@<TRIPOS>BOND
     1    1    2 1
     2    2    3 1
     3    3    8 ar
     4    3    4 ar
     5    4    5 ar
     6    5    6 ar
     7    6    7 ar
     8    6    9 1
     9    7    8 ar
    10    9   20 1
    11   10   11 1
    12   10   20 1
    13   11   16 ar
    14   11   12 ar
    15   12   13 ar
    16   13   14 ar
    17   13   19 1
    18   14   15 ar
    19   15   16 ar
    20   16   17 1
    21   17   18 1
    22   18   20 1
    23    1   21 1
    24    1   22 1
    25    1   23 1
    26    4   24 1
    27    5   25 1
    28    7   26 1
    29    8   27 1
    30    9   28 1
    31    9   29 1
    32   10   30 1
    33   10   31 1
    34   12   32 1
    35   14   33 1
    36   15   34 1
    37   18   35 1
    38   18   36 1
    39   20   37 1
@<TRIPOS>MOLECULE
ZINC00114414
 40 42 0 0 0
SMALL
NO_CHARGES


@<TRIPOS>ATOM
      1 C           8.140    -8.645     1.713  C    
      2 C           6.872    -8.005     2.056  C    
      3 C           6.475    -7.618     3.298  C    
      4 C           5.082    -7.130     3.482  C    
      5 C           4.206    -7.243     2.293  C    
      6 C           4.778    -7.574     1.108  C    
      7 N           6.050    -7.878     1.043  N    
      8 C           4.008    -7.656    -0.129  C    
      9 C           2.802    -6.680    -0.113  C    
     10 C           1.999    -6.832     1.205  C    
     11 C           2.852    -6.985     2.377  C    
     12 O           2.283    -7.001     3.462  O    
     13 C           5.087    -5.718     3.971  C    
     14 C           5.588    -4.642     3.199  C    
     15 C           5.565    -3.338     3.727  C    
     16 C           5.049    -3.113     5.017  C    
     17 C           4.557    -4.206     5.752  C    
     18 N           4.593    -5.450     5.212  N    
     19 C           7.308    -7.629     4.420  C    
     20 O           8.603    -7.237     4.326  O    
     21 O           6.783    -7.888     5.657  O    
     22 C           7.475    -7.847     6.905  C    
     23 H           7.956    -9.550     1.131  H    
     24 H           8.722    -8.950     2.580  H    
     25 H           8.744    -7.962     1.110  H    
     26 H           4.635    -7.779     4.244  H    
     27 H           6.383    -8.103     0.199  H    
     28 H           4.638    -7.417    -0.993  H    
     29 H           3.645    -8.682    -0.249  H    
     30 H           3.176    -5.654    -0.192  H    
     31 H           2.153    -6.874    -0.971  H    
     32 H           1.367    -5.947     1.325  H    
     33 H           1.348    -7.708     1.127  H    
     34 H           5.961    -4.802     2.262  H    
     35 H           5.926    -2.557     3.179  H    
     36 H           5.031    -2.170     5.413  H    
     37 H           4.170    -4.071     6.690  H    
     38 H           8.302    -8.557     6.904  H    
     39 H           6.783    -8.112     7.708  H    
     40 H           7.855    -6.840     7.090  H    
@<TRIPOS>BOND
     1    1    2 1
     2    2    7 1
     3    2    3 2
     4    3    4 1
     5    3   19 1
     6    4    5 1
     7    4   13 1
     8    5   11 1
     9    5    6 2
    10    6    7 1
    11    6    8 1
    12    8    9 1
    13    9   10 1
    14   10   11 1
    15   11   12 2
    16   13   18 ar
    17   13   14 ar
    18   14   15 ar
    19   15   16 ar
    20   16   17 ar
    21   17   18 ar
    22   19   20 2
    23   19   21 1
    24   21   22 1
    25    1   23 1
    26    1   24 1
    27    1   25 1
    28    4   26 1
    29    7   27 1
    30    8   28 1
    31    8   29 1
    32    9   30 1
    33    9   31 1
    34   10   32 1
    35   10   33 1
    36   14   34 1
    37   15   35 1
    38   16   36 1
    39   17   37 1
    40   22   38 1
    41   22   39 1
    42   22   40 1
@<TRIPOS>MOLECULE
ZINC00115455
 30 31 0 0 0
SMALL
NO_CHARGES


@<TRIPOS>ATOM
      1 C           4.190    -6.590     3.794  C    
      2 C           4.070    -6.469     2.325  C    
      3 C           3.680    -5.375     1.529  C    
      4 C           3.666    -5.630     0.126  C    
      5 C           4.069    -6.942    -0.190  C    
      6 S           4.428    -7.774     1.269  S    
      7 N           4.202    -7.550    -1.386  N    
      8 C           3.270    -4.692    -0.870  C    
      9 O           3.284    -5.018    -2.186  O    
     10 O           2.839    -3.447    -0.536  O    
     11 C           2.396    -2.414    -1.421  C    
     12 C           3.362    -4.138     2.127  C    
     13 C           2.046    -3.888     2.577  C    
     14 C           1.724    -2.653     3.168  C    
     15 C           2.707    -1.659     3.310  C    
     16 C           4.024    -1.901     2.866  C    
     17 C           4.349    -3.138     2.275  C    
     18 Cl          5.210    -0.704     3.042  Cl   
     19 H           3.540    -7.394     4.150  H    
     20 H           3.914    -5.671     4.312  H    
     21 H           5.223    -6.835     4.046  H    
     22 H           4.495    -8.478    -1.429  H    
     23 H           4.031    -7.065    -2.211  H    
     24 H           3.202    -2.126    -2.097  H    
     25 H           2.098    -1.548    -0.829  H    
     26 H           1.539    -2.759    -2.001  H    
     27 H           1.319    -4.602     2.477  H    
     28 H           0.768    -2.477     3.491  H    
     29 H           2.463    -0.765     3.740  H    
     30 H           5.306    -3.309     1.954  H    
@<TRIPOS>BOND
     1    1    2 1
     2    2    6 1
     3    2    3 2
     4    3    4 1
     5    3   12 1
     6    4    5 2
     7    4    8 1
     8    5    6 1
     9    5    7 1
    10    8    9 2
    11    8   10 1
    12   10   11 1
    13   12   17 ar
    14   12   13 ar
    15   13   14 ar
    16   14   15 ar
    17   15   16 ar
    18   16   17 ar
    19   16   18 1
    20    1   19 1
    21    1   20 1
    22    1   21 1
    23    7   22 1
    24    7   23 1
    25   11   24 1
    26   11   25 1
    27   11   26 1
    28   13   27 1
    29   14   28 1
    30   15   29 1
    31   17   30 1
@<TRIPOS>MOLECULE
ZINC00119517
 27 29 0 0 0
SMALL
NO_CHARGES


@<TRIPOS>ATOM
      1 C           6.080   -10.449     0.178  C    
      2 C           6.114   -10.416     1.584  C    
      3 C           5.666    -9.273     2.272  C    
      4 C           5.179    -8.133     1.573  C    
      5 C           5.149    -8.196     0.153  C    
      6 C           5.595    -9.339    -0.536  C    
      7 C           4.748    -6.993     2.266  C    
      8 O           4.378    -7.116     3.428  O    
      9 N           4.779    -5.797     1.685  N    
     10 C           4.421    -4.574     2.150  C    
     11 N           4.626    -3.568     1.269  N    
     12 C           4.363    -2.258     1.479  C    
     13 C           4.621    -1.262     0.520  C    
     14 C           4.277     0.028     0.927  C    
     15 S           3.636    -0.078     2.518  S    
     16 C           3.805    -1.783     2.673  C    
     17 C           3.477    -2.576     3.745  C    
     18 O           2.953    -2.085     4.733  O    
     19 S           3.754    -4.271     3.750  S    
     20 H           6.405   -11.278    -0.325  H    
     21 H           6.473   -11.221     2.104  H    
     22 H           5.713    -9.277     3.295  H    
     23 H           4.785    -7.415    -0.400  H    
     24 H           5.567    -9.364    -1.558  H    
     25 H           5.129    -5.791     0.781  H    
     26 H           5.022    -1.459    -0.398  H    
     27 H           4.392     0.884     0.382  H    
@<TRIPOS>BOND
     1    1    6 ar
     2    1    2 ar
     3    2    3 ar
     4    3    4 ar
     5    4    5 ar
     6    4    7 1
     7    5    6 ar
     8    7    8 2
     9    7    9 1
    10    9   10 1
    11   10   19 1
    12   10   11 2
    13   11   12 1
    14   12   16 2
    15   12   13 1
    16   13   14 2
    17   14   15 1
    18   15   16 1
    19   16   17 1
    20   17   18 2
    21   17   19 1
    22    1   20 1
    23    2   21 1
    24    3   22 1
    25    5   23 1
    26    6   24 1
    27    9   25 1
    28   13   26 1
    29   14   27 1
@<TRIPOS>MOLECULE
ZINC00129178
 30 32 0 0 0
SMALL
NO_CHARGES


@<TRIPOS>ATOM
      1 C           5.821   -10.067    -0.695  C    
      2 C           4.457    -9.767    -0.534  C    
      3 C           4.064    -8.505    -0.053  C    
      4 C           5.031    -7.523     0.270  C    
      5 C           6.401    -7.838     0.104  C    
      6 C           6.793    -9.102    -0.376  C    
      7 C           4.597    -6.198     0.774  C    
      8 O           3.819    -5.545    -0.248  O    
      9 C           3.339    -4.321     0.129  C    
     10 C           2.076    -4.219     0.764  C    
     11 C           1.557    -2.959     1.132  C    
     12 C           2.311    -1.810     0.841  C    
     13 C           3.548    -1.906     0.201  C    
     14 C           4.079    -3.154    -0.170  C    
     15 C           4.029    -0.612     0.054  C    
     16 C           3.072     0.232     0.611  C    
     17 N           2.052    -0.513     1.076  N    
     18 H           6.106   -10.984    -1.043  H    
     19 H           3.749   -10.469    -0.766  H    
     20 H           3.067    -8.304     0.059  H    
     21 H           7.123    -7.151     0.331  H    
     22 H           7.785    -9.320    -0.491  H    
     23 H           4.003    -6.351     1.680  H    
     24 H           5.462    -5.579     1.036  H    
     25 H           1.534    -5.064     0.961  H    
     26 H           0.648    -2.883     1.595  H    
     27 H           4.983    -3.215    -0.644  H    
     28 H           4.912    -0.332    -0.377  H    
     29 H           3.132     1.250     0.660  H    
     30 H           1.256    -0.168     1.510  H    
@<TRIPOS>BOND
     1    1    6 ar
     2    1    2 ar
     3    2    3 ar
     4    3    4 ar
     5    4    5 ar
     6    4    7 1
     7    5    6 ar
     8    7    8 1
     9    8    9 1
    10    9   14 ar
    11    9   10 ar
    12   10   11 ar
    13   11   12 ar
    14   12   17 1
    15   12   13 ar
    16   13   14 ar
    17   13   15 1
    18   15   16 2
    19   16   17 1
    20    1   18 1
    21    2   19 1
    22    3   20 1
    23    5   21 1
    24    6   22 1
    25    7   23 1
    26    7   24 1
    27   10   25 1
    28   11   26 1
    29   14   27 1
    30   15   28 1
    31   16   29 1
    32   17   30 1
@<TRIPOS>MOLECULE
ZINC00130185
 27 28 0 0 0
SMALL
NO_CHARGES


@<TRIPOS>ATOM
      1 C           0.538    -3.319    -2.543  C    
      2 C           0.635    -3.095    -1.159  C    
      3 C           1.736    -2.390    -0.640  C    
      4 C           2.751    -1.899    -1.493  C    
      5 C           2.636    -2.131    -2.882  C    
      6 C           1.539    -2.838    -3.405  C    
      7 C           3.897    -1.146    -0.928  C    
      8 O           4.596    -1.987     0.019  O    
      9 C           5.656    -1.397     0.594  C    
     10 C           5.511    -0.700     1.740  C    
     11 N           6.570    -0.145     2.346  N    
     12 C           7.821    -0.288     1.832  C    
     13 N           7.977    -1.006     0.685  N    
     14 C           6.926    -1.557     0.081  C    
     15 O           7.119    -2.217    -0.928  O    
     16 N           8.877     0.267     2.444  N    
     17 H          -0.258    -3.835    -2.923  H    
     18 H          -0.096    -3.441    -0.533  H    
     19 H           1.792    -2.235     0.366  H    
     20 H           3.353    -1.788    -3.525  H    
     21 H           1.471    -3.005    -4.412  H    
     22 H           4.581    -0.829    -1.725  H    
     23 H           3.507    -0.247    -0.436  H    
     24 H           4.614    -0.589     2.147  H    
     25 H           8.867    -1.122     0.303  H    
     26 H           9.765     0.155     2.078  H    
     27 H           8.753     0.778     3.259  H    
@<TRIPOS>BOND
     1    1    6 ar
     2    1    2 ar
     3    2    3 ar
     4    3    4 ar
     5    4    5 ar
     6    4    7 1
     7    5    6 ar
     8    7    8 1
     9    8    9 1
    10    9   14 1
    11    9   10 2
    12   10   11 1
    13   11   12 2
    14   12   16 1
    15   12   13 1
    16   13   14 1
    17   14   15 2
    18    1   17 1
    19    2   18 1
    20    3   19 1
    21    5   20 1
    22    6   21 1
    23    7   22 1
    24    7   23 1
    25   10   24 1
    26   13   25 1
    27   16   26 1
    28   16   27 1
@<TRIPOS>MOLECULE
ZINC00136141
 35 37 0 0 0
SMALL
NO_CHARGES


@<TRIPOS>ATOM
      1 C           4.424   -11.319    -0.725  C    
      2 C           5.236   -10.154    -0.109  C    
      3 C           6.665   -10.095    -0.707  C    
      4 N           4.534    -8.925    -0.339  N    
      5 C           4.608    -7.765     0.363  C    
      6 C           5.413    -7.559     1.507  C    
      7 C           5.420    -6.319     2.172  C    
      8 C           4.629    -5.232     1.722  C    
      9 C           3.824    -5.451     0.576  C    
     10 C           3.812    -6.692    -0.086  C    
     11 N           4.643    -4.026     2.365  N    
     12 N           3.954    -3.004     2.010  N    
     13 C           4.206    -2.030     2.837  C    
     14 C           3.737    -0.709     2.920  C    
     15 C           4.217     0.113     3.963  C    
     16 C           5.151    -0.395     4.899  C    
     17 C           5.609    -1.727     4.796  C    
     18 C           5.117    -2.526     3.751  C    
     19 N           5.345    -3.760     3.404  N    
     20 H           4.328   -11.198    -1.807  H    
     21 H           3.424   -11.351    -0.286  H    
     22 H           4.918   -12.271    -0.520  H    
     23 H           5.302   -10.355     0.962  H    
     24 H           7.195   -11.028    -0.505  H    
     25 H           7.235    -9.277    -0.262  H    
     26 H           6.625    -9.941    -1.788  H    
     27 H           3.911    -8.930    -1.084  H    
     28 H           6.001    -8.307     1.874  H    
     29 H           6.018    -6.219     2.996  H    
     30 H           3.233    -4.702     0.207  H    
     31 H           3.214    -6.803    -0.909  H    
     32 H           3.063    -0.348     2.242  H    
     33 H           3.892     1.078     4.044  H    
     34 H           5.493     0.206     5.651  H    
     35 H           6.282    -2.099     5.469  H    
@<TRIPOS>BOND
     1    1    2 1
     2    2    3 1
     3    2    4 1
     4    4    5 1
     5    5   10 ar
     6    5    6 ar
     7    6    7 ar
     8    7    8 ar
     9    8    9 ar
    10    8   11 1
    11    9   10 ar
    12   11   19 1
    13   11   12 1
    14   12   13 2
    15   13   18 ar
    16   13   14 ar
    17   14   15 ar
    18   15   16 ar
    19   16   17 ar
    20   17   18 ar
    21   18   19 2
    22    1   20 1
    23    1   21 1
    24    1   22 1
    25    2   23 1
    26    3   24 1
    27    3   25 1
    28    3   26 1
    29    4   27 1
    30    6   28 1
    31    7   29 1
    32    9   30 1
    33   10   31 1
    34   14   32 1
    35   15   33 1
    36   16   34 1
    37   17   35 1
@<TRIPOS>MOLECULE
ZINC00159766
 29 30 0 0 0
SMALL
NO_CHARGES


@<TRIPOS>ATOM
      1 C           7.656    -3.976     2.417  C    
      2 C           6.691    -3.529     3.340  C    
      3 C           5.388    -4.057     3.308  C    
      4 C           5.027    -5.045     2.362  C    
      5 C           6.009    -5.484     1.444  C    
      6 C           7.312    -4.954     1.466  C    
      7 C           3.663    -5.633     2.335  C    
      8 N           2.989    -5.426     1.078  N    
      9 C           2.577    -6.491     0.223  C    
     10 C           1.932    -5.769    -0.978  C    
     11 C           2.625    -4.234     0.557  C    
     12 N           2.831    -3.027     1.126  N    
     13 N           2.454    -1.877     0.533  N    
     14 N           2.016    -4.405    -0.625  N    
     15 H           8.599    -3.593     2.440  H    
     16 H           6.941    -2.816     4.031  H    
     17 H           4.703    -3.716     3.987  H    
     18 H           5.784    -6.196     0.747  H    
     19 H           8.012    -5.274     0.792  H    
     20 H           3.763    -6.703     2.540  H    
     21 H           3.029    -5.223     3.129  H    
     22 H           3.434    -7.090    -0.100  H    
     23 H           1.848    -7.131     0.730  H    
     24 H           2.487    -5.955    -1.901  H    
     25 H           0.889    -6.067    -1.109  H    
     26 H           3.275    -2.981     1.991  H    
     27 H           2.928    -1.790    -0.366  H    
     28 H           2.704    -1.085     1.129  H    
     29 H           1.444    -1.887     0.387  H    
@<TRIPOS>BOND
     1    1    6 ar
     2    1    2 ar
     3    2    3 ar
     4    3    4 ar
     5    4    5 ar
     6    4    7 1
     7    5    6 ar
     8    7    8 1
     9    8   11 1
    10    8    9 1
    11    9   10 1
    12   10   14 1
    13   11   12 1
    14   11   14 2
    15   12   13 1
    16    1   15 1
    17    2   16 1
    18    3   17 1
    19    5   18 1
    20    6   19 1
    21    7   20 1
    22    7   21 1
    23    9   22 1
    24    9   23 1
    25   10   24 1
    26   10   25 1
    27   12   26 1
    28   13   27 1
    29   13   28 1
    30   13   29 1
@<TRIPOS>MOLECULE
ZINC00152196
 30 31 0 0 0
SMALL
NO_CHARGES


@<TRIPOS>ATOM
      1 C           5.011     5.028    -2.328  C    
      2 C           4.070     5.351    -1.223  C    
      3 C           4.070     6.670    -0.703  C    
      4 C           3.186     7.029     0.336  C    
      5 N           2.336     6.091     0.828  N    
      6 C           2.295     4.821     0.367  C    
      7 C           3.161     4.391    -0.678  C    
      8 C           3.021     3.039    -1.060  C    
      9 N           2.143     2.241    -0.457  N    
     10 C           1.332     2.671     0.541  C    
     11 N           1.417     3.965     0.940  N    
     12 S           0.234     1.524     1.254  S    
     13 C          -0.333     2.440     2.716  C    
     14 C          -1.146     1.602     3.571  C    
     15 O          -2.181     1.101     3.151  O    
     16 N          -0.811     1.369     4.818  N    
     17 O           3.680     2.519    -1.945  O    
     18 C           3.174     8.391     0.899  C    
     19 H           5.670     4.215    -2.025  H    
     20 H           5.642     5.875    -2.609  H    
     21 H           4.449     4.727    -3.214  H    
     22 H           4.704     7.380    -1.080  H    
     23 H           2.081     1.314    -0.738  H    
     24 H           0.545     2.793     3.265  H    
     25 H          -0.920     3.305     2.397  H    
     26 H          -1.368     0.803     5.376  H    
     27 H          -0.007     1.767     5.186  H    
     28 H           4.154     8.621     1.326  H    
     29 H           2.423     8.490     1.682  H    
     30 H           2.952     9.111     0.108  H    
@<TRIPOS>BOND
     1    1    2 1
     2    2    7 ar
     3    2    3 ar
     4    3    4 ar
     5    4    5 ar
     6    4   18 1
     7    5    6 ar
     8    6    7 ar
     9    6   11 1
    10    7    8 1
    11    8    9 1
    12    8   17 2
    13    9   10 1
    14   10   12 1
    15   10   11 2
    16   12   13 1
    17   13   14 1
    18   14   15 2
    19   14   16 1
    20    1   19 1
    21    1   20 1
    22    1   21 1
    23    3   22 1
    24    9   23 1
    25   13   24 1
    26   13   25 1
    27   16   26 1
    28   16   27 1
    29   18   28 1
    30   18   29 1
    31   18   30 1
@<TRIPOS>MOLECULE
ZINC00152503
 24 24 0 0 0
SMALL
NO_CHARGES


@<TRIPOS>ATOM
      1 C           4.394    -1.749     0.490  C    
      2 O           4.246    -0.514    -0.230  O    
      3 C           4.625     0.698     0.315  C    
      4 C           5.324     0.868     1.534  C    
      5 C           5.643     2.148     2.006  C    
      6 C           5.271     3.283     1.270  C    
      7 C           4.583     3.154     0.040  C    
      8 C           4.282     1.854    -0.430  C    
      9 O           3.586     1.708    -1.604  O    
     10 C           4.434     1.592    -2.761  C    
     11 O           4.152     4.200    -0.751  O    
     12 C           4.564     5.553    -0.504  C    
     13 H           5.449    -1.967     0.663  H    
     14 H           3.973    -2.550    -0.116  H    
     15 H           3.857    -1.716     1.440  H    
     16 H           5.603     0.067     2.099  H    
     17 H           6.139     2.259     2.892  H    
     18 H           5.508     4.196     1.648  H    
     19 H           5.051     2.483    -2.895  H    
     20 H           3.798     1.483    -3.640  H    
     21 H           5.077     0.711    -2.696  H    
     22 H           4.143     5.918     0.436  H    
     23 H           4.188     6.179    -1.311  H    
     24 H           5.653     5.636    -0.482  H    
@<TRIPOS>BOND
     1    1    2 1
     2    2    3 1
     3    3    8 ar
     4    3    4 ar
     5    4    5 ar
     6    5    6 ar
     7    6    7 ar
     8    7    8 ar
     9    7   11 1
    10    8    9 1
    11    9   10 1
    12   11   12 1
    13    1   13 1
    14    1   14 1
    15    1   15 1
    16    4   16 1
    17    5   17 1
    18    6   18 1
    19   10   19 1
    20   10   20 1
    21   10   21 1
    22   12   22 1
    23   12   23 1
    24   12   24 1
@<TRIPOS>MOLECULE
ZINC00158961
 24 25 0 0 0
SMALL
NO_CHARGES


@<TRIPOS>ATOM
      1 C           5.663    -1.460     4.806  C    
      2 C           5.276    -1.044     3.551  C    
      3 C           5.113    -2.190     2.784  C    
      4 N           5.392    -3.300     3.523  N    
      5 C           5.725    -2.845     4.764  C    
      6 C           5.333    -4.631     3.094  C    
      7 C           5.590    -5.705     3.989  C    
      8 C           5.490    -7.048     3.587  C    
      9 C           5.132    -7.362     2.268  C    
     10 C           4.881    -6.334     1.335  C    
     11 C           4.992    -4.987     1.758  C    
     12 C           4.455    -6.700    -0.036  C    
     13 O           3.109    -7.181     0.003  O    
     14 H           5.867    -0.865     5.611  H    
     15 H           5.136    -0.079     3.240  H    
     16 H           4.818    -2.150     1.805  H    
     17 H           5.989    -3.400     5.580  H    
     18 H           5.840    -5.535     4.962  H    
     19 H           5.661    -7.804     4.258  H    
     20 H           5.050    -8.348     1.997  H    
     21 H           4.794    -4.259     1.075  H    
     22 H           4.492    -5.845    -0.718  H    
     23 H           5.108    -7.484    -0.438  H    
     24 H           3.146    -7.970     0.590  H    
@<TRIPOS>BOND
     1    1    5 2
     2    1    2 1
     3    2    3 2
     4    3    4 1
     5    4    5 1
     6    4    6 1
     7    6   11 ar
     8    6    7 ar
     9    7    8 ar
    10    8    9 ar
    11    9   10 ar
    12   10   11 ar
    13   10   12 1
    14   12   13 1
    15    1   14 1
    16    2   15 1
    17    3   16 1
    18    5   17 1
    19    7   18 1
    20    8   19 1
    21    9   20 1
    22   11   21 1
    23   12   22 1
    24   12   23 1
    25   13   24 1
@<TRIPOS>MOLECULE
ZINC00159556
 23 23 0 0 0
SMALL
NO_CHARGES


@<TRIPOS>ATOM
      1 C           5.694    -7.049     0.717  C    
      2 C           4.217    -7.420     0.454  C    
      3 C           3.560    -6.527    -0.636  C    
      4 C           2.147    -6.819    -0.853  C    
      5 O           1.839    -7.973    -1.119  O    
      6 C           1.137    -5.850    -0.856  C    
      7 C           1.285    -4.631    -1.572  C    
      8 C           0.249    -3.673    -1.585  C    
      9 C          -0.952    -3.916    -0.899  C    
     10 C          -1.121    -5.123    -0.199  C    
     11 C          -0.091    -6.084    -0.177  C    
     12 F          -0.303    -7.181     0.506  F    
     13 F           2.348    -4.369    -2.292  F    
     14 H           6.278    -7.109    -0.204  H    
     15 H           6.126    -7.738     1.446  H    
     16 H           5.763    -6.035     1.114  H    
     17 H           4.180    -8.470     0.142  H    
     18 H           3.662    -7.320     1.394  H    
     19 H           3.685    -5.479    -0.336  H    
     20 H           4.088    -6.668    -1.584  H    
     21 H           0.363    -2.799    -2.106  H    
     22 H          -1.703    -3.220    -0.919  H    
     23 H          -2.000    -5.301     0.295  H    
@<TRIPOS>BOND
     1    1    2 1
     2    2    3 1
     3    3    4 1
     4    4    5 2
     5    4    6 1
     6    6   11 ar
     7    6    7 ar
     8    7    8 ar
     9    7   13 1
    10    8    9 ar
    11    9   10 ar
    12   10   11 ar
    13   11   12 1
    14    1   14 1
    15    1   15 1
    16    1   16 1
    17    2   17 1
    18    2   18 1
    19    3   19 1
    20    3   20 1
    21    8   21 1
    22    9   22 1
    23   10   23 1
@<TRIPOS>MOLECULE
ZINC00166637
 35 36 0 0 0
SMALL
NO_CHARGES


@<TRIPOS>ATOM
      1 C           7.508    -9.358    -0.141  C    
      2 C           6.117    -8.693    -0.306  C    
      3 C           5.268    -8.815     0.993  C    
      4 C           3.907    -8.089     0.847  C    
      5 C           4.854    -6.522    -0.822  C    
      6 C           6.244    -7.200    -0.725  C    
      7 C           2.772    -5.918     0.434  C    
      8 C           2.949    -4.431     0.410  C    
      9 C           3.450    -3.752     1.544  C    
     10 C           3.631    -2.353     1.529  C    
     11 C           3.317    -1.611     0.368  C    
     12 C           2.818    -2.283    -0.768  C    
     13 C           2.633    -3.679    -0.742  C    
     14 Cl          2.436    -1.445    -2.191  Cl   
     15 O           3.480    -0.266     0.311  O    
     16 Cl          4.225    -1.600     2.927  Cl   
     17 N           4.082    -6.653     0.461  N    
     18 H           8.060    -9.318    -1.084  H    
     19 H           7.397   -10.408     0.142  H    
     20 H           8.095    -8.850     0.628  H    
     21 H           5.594    -9.230    -1.106  H    
     22 H           5.083    -9.868     1.220  H    
     23 H           5.812    -8.378     1.835  H    
     24 H           3.291    -8.611     0.106  H    
     25 H           3.395    -8.162     1.812  H    
     26 H           5.029    -5.470    -1.067  H    
     27 H           4.292    -6.962    -1.654  H    
     28 H           6.847    -6.657     0.008  H    
     29 H           6.743    -7.125    -1.696  H    
     30 H           2.179    -6.140     1.328  H    
     31 H           2.177    -6.261    -0.417  H    
     32 H           3.680    -4.285     2.389  H    
     33 H           2.282    -4.160    -1.574  H    
     34 H           3.824     0.003     1.185  H    
     35 H           4.652    -6.220     1.198  H    
@<TRIPOS>BOND
     1    1    2 1
     2    2    6 1
     3    2    3 1
     4    3    4 1
     5    4   17 1
     6    5    6 1
     7    5   17 1
     8    7    8 1
     9    7   17 1
    10    8   13 ar
    11    8    9 ar
    12    9   10 ar
    13   10   11 ar
    14   10   16 1
    15   11   12 ar
    16   11   15 1
    17   12   13 ar
    18   12   14 1
    19    1   18 1
    20    1   19 1
    21    1   20 1
    22    2   21 1
    23    3   22 1
    24    3   23 1
    25    4   24 1
    26    4   25 1
    27    5   26 1
    28    5   27 1
    29    6   28 1
    30    6   29 1
    31    7   30 1
    32    7   31 1
    33    9   32 1
    34   13   33 1
    35   15   34 1
    36   17   35 1
@<TRIPOS>MOLECULE
ZINC00168173
 22 22 0 0 0
SMALL
NO_CHARGES


@<TRIPOS>ATOM
      1 C           5.961    -6.476    -1.649  C    
      2 C           4.426    -6.505    -1.466  C    
      3 C           3.911    -7.371    -0.376  C    
      4 C           2.565    -7.582     0.007  C    
      5 N           2.410    -8.442     1.056  N    
      6 C           3.534    -8.964     1.574  C    
      7 S           4.860    -8.337     0.692  S    
      8 N           3.608    -9.826     2.602  N    
      9 C           1.420    -6.998    -0.583  C    
     10 O           0.194    -7.308    -0.093  O    
     11 O           1.519    -6.136    -1.629  O    
     12 C           0.437    -5.487    -2.304  C    
     13 H           6.445    -6.111    -0.742  H    
     14 H           6.223    -5.811    -2.473  H    
     15 H           6.336    -7.475    -1.878  H    
     16 H           4.095    -5.481    -1.279  H    
     17 H           3.986    -6.838    -2.410  H    
     18 H           4.470   -10.146     2.903  H    
     19 H           2.799   -10.128     3.044  H    
     20 H          -0.231    -6.228    -2.745  H    
     21 H           0.840    -4.860    -3.097  H    
     22 H          -0.122    -4.862    -1.608  H    
@<TRIPOS>BOND
     1    1    2 1
     2    2    3 1
     3    3    7 1
     4    3    4 2
     5    4    5 1
     6    4    9 1
     7    5    6 2
     8    6    7 1
     9    6    8 1
    10    9   10 2
    11    9   11 1
    12   11   12 1
    13    1   13 1
    14    1   14 1
    15    1   15 1
    16    2   16 1
    17    2   17 1
    18    8   18 1
    19    8   19 1
    20   12   20 1
    21   12   21 1
    22   12   22 1
@<TRIPOS>MOLECULE
ZINC00172620
 29 30 0 0 0
SMALL
NO_CHARGES


@<TRIPOS>ATOM
      1 C           2.960    -9.086    -1.983  C    
      2 O           2.100    -7.995    -1.642  O    
      3 C           2.069    -7.321    -0.462  C    
      4 O           2.944    -7.660     0.516  O    
      5 C           1.131    -6.170    -0.309  C    
      6 C           0.837    -5.729     1.184  C    
      7 C           2.580    -3.993     1.112  C    
      8 C           2.933    -4.345    -0.375  C    
      9 C           1.655    -4.905    -1.090  C    
     10 C           0.567    -3.779    -1.024  C    
     11 C           0.268    -3.437     0.476  C    
     12 O          -0.106    -6.608    -0.886  O    
     13 N           1.128    -4.267     1.387  N    
     14 H           4.000    -8.757    -1.976  H    
     15 H           2.705    -9.435    -2.983  H    
     16 H           2.830    -9.908    -1.278  H    
     17 H          -0.210    -5.918     1.440  H    
     18 H           1.418    -6.304     1.908  H    
     19 H           3.204    -4.577     1.795  H    
     20 H           2.802    -2.940     1.311  H    
     21 H           3.289    -3.453    -0.896  H    
     22 H           3.741    -5.079    -0.406  H    
     23 H           1.878    -5.144    -2.136  H    
     24 H           0.922    -2.888    -1.548  H    
     25 H          -0.348    -4.102    -1.526  H    
     26 H           0.450    -2.373     0.662  H    
     27 H          -0.789    -3.614     0.699  H    
     28 H           0.098    -6.808    -1.821  H    
     29 H           0.920    -4.019     2.358  H    
@<TRIPOS>BOND
     1    1    2 1
     2    2    3 1
     3    3    4 2
     4    3    5 1
     5    5    9 1
     6    5    6 1
     7    5   12 1
     8    6   13 1
     9    7    8 1
    10    7   13 1
    11    8    9 1
    12    9   10 1
    13   10   11 1
    14   11   13 1
    15    1   14 1
    16    1   15 1
    17    1   16 1
    18    6   17 1
    19    6   18 1
    20    7   19 1
    21    7   20 1
    22    8   21 1
    23    8   22 1
    24    9   23 1
    25   10   24 1
    26   10   25 1
    27   11   26 1
    28   11   27 1
    29   12   28 1
    30   13   29 1
@<TRIPOS>MOLECULE
ZINC00178406
 34 36 0 0 0
SMALL
NO_CHARGES


@<TRIPOS>ATOM
      1 C          -2.739    -0.782    -0.337  C    
      2 C          -1.713    -1.286     0.484  C    
      3 C          -0.364    -1.081     0.130  C    
      4 C          -0.024    -0.347    -1.035  C    
      5 C          -1.072     0.122    -1.869  C    
      6 C          -2.420    -0.087    -1.520  C    
      7 C           1.319    -0.162    -1.365  C    
      8 C           1.900     0.988    -1.770  C    
      9 C           3.211     1.028    -2.093  C    
     10 C           3.693     0.685    -3.300  C    
     11 C           3.050     0.235    -4.420  C    
     12 O           1.728     0.006    -4.596  O    
     13 O           3.982     0.062    -5.372  O    
     14 C           5.138     0.405    -4.815  C    
     15 N           4.938     0.765    -3.598  N    
     16 C           6.367     0.381    -5.469  C    
     17 C           7.556     0.821    -4.831  C    
     18 C           8.792     0.796    -5.508  C    
     19 C           8.857     0.338    -6.837  C    
     20 C           7.691    -0.108    -7.484  C    
     21 C           6.455    -0.084    -6.807  C    
     22 Cl          1.129     2.476    -1.767  Cl   
     23 H          -3.718    -0.922    -0.077  H    
     24 H          -1.947    -1.793     1.342  H    
     25 H           0.370    -1.453     0.744  H    
     26 H          -0.861     0.610    -2.747  H    
     27 H          -3.165     0.261    -2.127  H    
     28 H           1.904    -0.961    -1.266  H    
     29 H           3.845     1.352    -1.396  H    
     30 H           7.536     1.169    -3.864  H    
     31 H           9.640     1.124    -5.036  H    
     32 H           9.754     0.323    -7.328  H    
     33 H           7.739    -0.443    -8.451  H    
     34 H           5.621    -0.413    -7.305  H    
@<TRIPOS>BOND
     1    1    6 ar
     2    1    2 ar
     3    2    3 ar
     4    3    4 ar
     5    4    5 ar
     6    4    7 1
     7    5    6 ar
     8    7    8 2
     9    8    9 1
    10    8   22 1
    11    9   10 2
    12   10   15 1
    13   10   11 1
    14   11   12 2
    15   11   13 1
    16   13   14 1
    17   14   15 2
    18   14   16 1
    19   16   21 ar
    20   16   17 ar
    21   17   18 ar
    22   18   19 ar
    23   19   20 ar
    24   20   21 ar
    25    1   23 1
    26    2   24 1
    27    3   25 1
    28    5   26 1
    29    6   27 1
    30    7   28 1
    31    9   29 1
    32   17   30 1
    33   18   31 1
    34   19   32 1
    35   20   33 1
    36   21   34 1
@<TRIPOS>MOLECULE
ZINC00183959
 44 47 0 0 0
SMALL
NO_CHARGES


@<TRIPOS>ATOM
      1 C          -0.447    -5.669     1.043  C    
      2 C           1.610    -5.762    -0.347  C    
      3 C           2.427    -5.024    -1.445  C    
      4 C           2.632    -3.580    -1.158  C    
      5 C           1.913    -2.951    -0.126  C    
      6 S           2.399    -1.305    -0.037  S    
      7 C           3.501    -1.396    -1.349  C    
      8 C           3.506    -2.706    -1.856  C    
      9 C           4.347    -2.963    -2.938  C    
     10 O           4.416    -4.069    -3.452  O    
     11 N           5.098    -2.002    -3.466  N    
     12 C           5.101    -0.635    -3.003  C    
     13 N           4.256    -0.402    -1.862  N    
     14 C           6.490    -0.181    -2.707  C    
     15 C           7.036     0.917    -3.424  C    
     16 C           8.331     1.390    -3.164  C    
     17 C           9.141     0.780    -2.175  C    
     18 C           8.605    -0.317    -1.465  C    
     19 C           7.300    -0.790    -1.712  C    
     20 O           6.887    -1.848    -0.964  O    
     21 O          10.421     1.153    -1.835  O    
     22 C          11.113     2.193    -2.547  C    
     23 C           0.921    -3.628     0.728  C    
     24 N           0.467    -4.926     0.133  N    
     25 H          -0.867    -6.537     0.533  H    
     26 H          -1.285    -5.034     1.348  H    
     27 H           0.074    -6.009     1.940  H    
     28 H           1.245    -6.706    -0.767  H    
     29 H           2.271    -6.005     0.493  H    
     30 H           3.398    -5.520    -1.528  H    
     31 H           1.911    -5.112    -2.401  H    
     32 H           5.648    -2.225    -4.235  H    
     33 H           4.674    -0.043    -3.816  H    
     34 H           4.194     0.491    -1.486  H    
     35 H           6.490     1.384    -4.154  H    
     36 H           8.679     2.186    -3.703  H    
     37 H           9.177    -0.776    -0.753  H    
     38 H           5.927    -1.951    -1.128  H    
     39 H          11.172     1.965    -3.613  H    
     40 H          12.126     2.258    -2.152  H    
     41 H          10.620     3.158    -2.400  H    
     42 H           1.376    -3.780     1.711  H    
     43 H           0.059    -2.968     0.842  H    
     44 H          -0.084    -4.688    -0.697  H    
@<TRIPOS>BOND
     1    1   24 1
     2    2    3 1
     3    2   24 1
     4    3    4 1
     5    4    8 1
     6    4    5 2
     7    5    6 1
     8    5   23 1
     9    6    7 1
    10    7   13 1
    11    7    8 2
    12    8    9 1
    13    9   10 2
    14    9   11 1
    15   11   12 1
    16   12   13 1
    17   12   14 1
    18   14   19 ar
    19   14   15 ar
    20   15   16 ar
    21   16   17 ar
    22   17   18 ar
    23   17   21 1
    24   18   19 ar
    25   19   20 1
    26   21   22 1
    27   23   24 1
    28    1   25 1
    29    1   26 1
    30    1   27 1
    31    2   28 1
    32    2   29 1
    33    3   30 1
    34    3   31 1
    35   11   32 1
    36   12   33 1
    37   13   34 1
    38   15   35 1
    39   16   36 1
    40   18   37 1
    41   20   38 1
    42   22   39 1
    43   22   40 1
    44   22   41 1
    45   23   42 1
    46   23   43 1
    47   24   44 1
@<TRIPOS>MOLECULE
ZINC00188393
 26 27 0 0 0
SMALL
NO_CHARGES


@<TRIPOS>ATOM
      1 C           1.809    -8.850    -1.690  C    
      2 C           2.867    -7.893    -1.412  C    
      3 O           3.983    -8.213    -1.806  O    
      4 C           2.702    -6.669    -0.745  C    
      5 C           3.771    -6.106    -0.014  C    
      6 C           3.630    -4.875     0.640  C    
      7 C           2.423    -4.143     0.575  C    
      8 C           1.297    -4.702    -0.108  C    
      9 C           1.486    -5.944    -0.779  C    
     10 N           0.054    -4.120    -0.135  N    
     11 O          -0.872    -4.576    -0.755  O    
     12 O          -0.276    -3.069     0.557  O    
     13 C           2.408    -2.821     1.258  C    
     14 C           3.561    -1.813     1.063  C    
     15 C           2.223    -1.573     0.368  C    
     16 H           1.612    -8.877    -2.764  H    
     17 H           0.879    -8.618    -1.170  H    
     18 H           2.119    -9.846    -1.367  H    
     19 H           4.668    -6.593     0.060  H    
     20 H           4.432    -4.512     1.163  H    
     21 H           0.711    -6.327    -1.322  H    
     22 H           1.895    -2.754     2.221  H    
     23 H           3.768    -1.144     1.901  H    
     24 H           4.373    -2.082     0.384  H    
     25 H           2.231    -1.724    -0.714  H    
     26 H           1.621    -0.765     0.789  H    
@<TRIPOS>BOND
     1    1    2 1
     2    2    3 2
     3    2    4 1
     4    4    9 ar
     5    4    5 ar
     6    5    6 ar
     7    6    7 ar
     8    7    8 ar
     9    7   13 1
    10    8    9 ar
    11    8   10 1
    12   10   11 2
    13   10   12 1
    14   13   15 1
    15   13   14 1
    16   14   15 1
    17    1   16 1
    18    1   17 1
    19    1   18 1
    20    5   19 1
    21    6   20 1
    22    9   21 1
    23   13   22 1
    24   14   23 1
    25   14   24 1
    26   15   25 1
    27   15   26 1
@<TRIPOS>MOLECULE
ZINC00204617
 28 30 0 0 0
SMALL
NO_CHARGES


@<TRIPOS>ATOM
      1 C           4.758    -9.587    -1.284  C    
      2 C           3.371    -9.766    -1.128  C    
      3 C           2.623    -8.859    -0.353  C    
      4 C           3.262    -7.765     0.263  C    
      5 C           4.661    -7.574     0.106  C    
      6 C           5.403    -8.496    -0.667  C    
      7 C           5.261    -6.460     0.735  C    
      8 C           4.491    -5.546     1.499  C    
      9 C           3.110    -5.811     1.621  C    
     10 N           2.548    -6.886     1.011  N    
     11 N           4.946    -4.426     2.147  N    
     12 C           6.132    -3.828     2.180  C    
     13 O           7.091    -4.245     1.543  O    
     14 C           6.296    -2.681     2.946  C    
     15 C           7.456    -1.898     3.093  C    
     16 C           7.333    -0.787     3.945  C    
     17 C           6.070    -0.637     4.516  C    
     18 S           5.095    -1.927     3.930  S    
     19 Cl          5.583     0.576     5.584  Cl   
     20 H           5.300   -10.248    -1.846  H    
     21 H           2.908   -10.557    -1.578  H    
     22 H           1.615    -9.000    -0.242  H    
     23 H           6.414    -8.380    -0.789  H    
     24 H           6.268    -6.330     0.631  H    
     25 H           2.505    -5.194     2.168  H    
     26 H           4.266    -3.975     2.671  H    
     27 H           8.339    -2.115     2.618  H    
     28 H           8.105    -0.144     4.133  H    
@<TRIPOS>BOND
     1    1    6 ar
     2    1    2 ar
     3    2    3 ar
     4    3    4 ar
     5    4   10 ar
     6    4    5 ar
     7    5    6 ar
     8    5    7 ar
     9    7    8 ar
    10    8    9 ar
    11    8   11 1
    12    9   10 ar
    13   11   12 1
    14   12   13 2
    15   12   14 1
    16   14   18 1
    17   14   15 2
    18   15   16 1
    19   16   17 2
    20   17   18 1
    21   17   19 1
    22    1   20 1
    23    2   21 1
    24    3   22 1
    25    6   23 1
    26    7   24 1
    27    9   25 1
    28   11   26 1
    29   15   27 1
    30   16   28 1
@<TRIPOS>MOLECULE
ZINC00207891
 36 39 0 0 0
SMALL
NO_CHARGES


@<TRIPOS>ATOM
      1 C          -2.104    -2.874    -1.810  C    
      2 O          -1.212    -1.844    -2.241  O    
      3 C           0.144    -1.888    -2.204  C    
      4 O           0.782    -2.997    -1.752  O    
      5 C           0.893    -0.715    -2.709  C    
      6 C           0.499     0.615    -1.992  C    
      7 C           0.821     0.676    -0.579  C    
      8 C           2.146     0.774    -0.509  C    
      9 C           2.597     0.725    -1.876  C    
     10 C           2.441    -0.681    -2.493  C    
     11 C           3.337    -0.590    -3.614  C    
     12 O           3.369    -1.495    -4.434  O    
     13 N           4.203     0.418    -3.526  N    
     14 C           3.990     1.186    -2.329  C    
     15 C           5.208     0.708    -4.436  C    
     16 C           6.457     1.236    -4.012  C    
     17 C           7.473     1.543    -4.937  C    
     18 C           7.263     1.331    -6.315  C    
     19 C           6.029     0.821    -6.759  C    
     20 C           5.014     0.523    -5.831  C    
     21 Cl          8.481     1.695    -7.433  Cl   
     22 O           1.531     1.464    -2.489  O    
     23 H          -1.949    -3.786    -2.396  H    
     24 H          -3.132    -2.529    -1.947  H    
     25 H          -1.942    -3.088    -0.749  H    
     26 H           0.663    -0.616    -3.774  H    
     27 H          -0.504     0.973    -2.236  H    
     28 H           0.185     0.852     0.161  H    
     29 H           2.681     1.018     0.292  H    
     30 H           2.800    -1.454    -1.805  H    
     31 H           3.991     2.264    -2.520  H    
     32 H           4.741     0.941    -1.573  H    
     33 H           6.645     1.387    -3.019  H    
     34 H           8.364     1.915    -4.604  H    
     35 H           5.861     0.671    -7.756  H    
     36 H           4.117     0.190    -6.191  H    
@<TRIPOS>BOND
     1    1    2 1
     2    2    3 1
     3    3    4 2
     4    3    5 1
     5    5   10 1
     6    5    6 1
     7    6   22 1
     8    6    7 1
     9    7    8 2
    10    8    9 1
    11    9   14 1
    12    9   10 1
    13    9   22 1
    14   10   11 1
    15   11   12 2
    16   11   13 1
    17   13   14 1
    18   13   15 1
    19   15   20 ar
    20   15   16 ar
    21   16   17 ar
    22   17   18 ar
    23   18   19 ar
    24   18   21 1
    25   19   20 ar
    26    1   23 1
    27    1   24 1
    28    1   25 1
    29    5   26 1
    30    6   27 1
    31    7   28 1
    32    8   29 1
    33   10   30 1
    34   14   31 1
    35   14   32 1
    36   16   33 1
    37   17   34 1
    38   19   35 1
    39   20   36 1
@<TRIPOS>MOLECULE
ZINC00211513
 33 36 0 0 0
SMALL
NO_CHARGES


@<TRIPOS>ATOM
      1 C           4.730   -10.417    -0.667  C    
      2 C           4.598   -10.201    -2.051  C    
      3 C           3.958    -9.043    -2.524  C    
      4 C           3.438    -8.089    -1.616  C    
      5 C           3.558    -8.310    -0.208  C    
      6 C           4.207    -9.485     0.247  C    
      7 C           3.023    -7.332     0.658  C    
      8 N           2.450    -6.295     0.138  N    
      9 N           2.336    -6.072    -1.126  N    
     10 C           2.799    -6.916    -2.043  C    
     11 O           2.653    -6.623    -3.222  O    
     12 C           3.057    -7.406     2.002  C    
     13 O           2.164    -8.030     2.561  O    
     14 N           4.053    -6.808     2.641  N    
     15 C           4.290    -6.785     3.972  C    
     16 N           5.345    -6.110     4.481  N    
     17 C           5.481    -6.174     5.830  C    
     18 C           6.505    -5.559     6.579  C    
     19 C           6.533    -5.728     7.981  C    
     20 C           5.539    -6.496     8.632  C    
     21 C           4.508    -7.108     7.885  C    
     22 C           4.501    -6.936     6.490  C    
     23 S           3.444    -7.534     5.280  S    
     24 H           5.200   -11.259    -0.324  H    
     25 H           4.976   -10.886    -2.711  H    
     26 H           3.876    -8.904    -3.536  H    
     27 H           4.311    -9.670     1.248  H    
     28 H           1.892    -5.259    -1.418  H    
     29 H           4.691    -6.328     2.088  H    
     30 H           7.223    -5.003     6.108  H    
     31 H           7.280    -5.289     8.528  H    
     32 H           5.571    -6.610     9.648  H    
     33 H           3.788    -7.667     8.349  H    
@<TRIPOS>BOND
     1    1    6 ar
     2    1    2 ar
     3    2    3 ar
     4    3    4 ar
     5    4   10 1
     6    4    5 ar
     7    5    6 ar
     8    5    7 1
     9    7    8 2
    10    7   12 1
    11    8    9 1
    12    9   10 1
    13   10   11 2
    14   12   13 2
    15   12   14 1
    16   14   15 1
    17   15   23 1
    18   15   16 2
    19   16   17 1
    20   17   22 ar
    21   17   18 ar
    22   18   19 ar
    23   19   20 ar
    24   20   21 ar
    25   21   22 ar
    26   22   23 1
    27    1   24 1
    28    2   25 1
    29    3   26 1
    30    6   27 1
    31    9   28 1
    32   14   29 1
    33   18   30 1
    34   19   31 1
    35   20   32 1
    36   21   33 1
@<TRIPOS>MOLECULE
ZINC00216482
 33 35 0 0 0
SMALL
NO_CHARGES


@<TRIPOS>ATOM
      1 C           5.230    -8.901     4.300  C    
      2 C           4.209    -9.828     4.009  C    
      3 C           4.013   -10.272     2.687  C    
      4 C           4.842    -9.786     1.659  C    
      5 C           5.862    -8.861     1.951  C    
      6 C           6.065    -8.402     3.275  C    
      7 C           7.143    -7.416     3.560  C    
      8 N           6.949    -6.156     2.835  N    
      9 C           5.760    -5.428     3.014  C    
     10 C           5.044    -5.402     4.245  C    
     11 C           3.818    -4.715     4.405  C    
     12 C           3.300    -4.011     3.296  C    
     13 C           3.991    -3.986     2.076  C    
     14 C           5.211    -4.677     1.936  C    
     15 S           6.029    -4.573     0.401  S    
     16 C           7.678    -4.539     1.133  C    
     17 C           7.863    -5.747     1.925  C    
     18 O           8.884    -6.381     1.696  O    
     19 C           3.123    -4.729     5.647  C    
     20 O           3.587    -5.413     6.716  O    
     21 F           3.067   -11.129     2.417  F    
     22 O           1.952    -4.069     5.818  O    
     23 H           5.354    -8.594     5.268  H    
     24 H           3.611   -10.176     4.761  H    
     25 H           4.705   -10.104     0.696  H    
     26 H           6.453    -8.520     1.189  H    
     27 H           7.219    -7.200     4.629  H    
     28 H           8.080    -7.925     3.315  H    
     29 H           5.433    -5.889     5.049  H    
     30 H           2.416    -3.496     3.365  H    
     31 H           3.602    -3.454     1.293  H    
     32 H           8.409    -4.452     0.326  H    
     33 H           7.773    -3.659     1.774  H    
@<TRIPOS>BOND
     1    1    6 ar
     2    1    2 ar
     3    2    3 ar
     4    3    4 ar
     5    3   21 1
     6    4    5 ar
     7    5    6 ar
     8    6    7 1
     9    7    8 1
    10    8   17 1
    11    8    9 1
    12    9   14 ar
    13    9   10 ar
    14   10   11 ar
    15   11   12 ar
    16   11   19 1
    17   12   13 ar
    18   13   14 ar
    19   14   15 1
    20   15   16 1
    21   16   17 1
    22   17   18 2
    23   19   20 2
    24   19   22 1
    25    1   23 1
    26    2   24 1
    27    4   25 1
    28    5   26 1
    29    7   27 1
    30    7   28 1
    31   10   29 1
    32   12   30 1
    33   13   31 1
    34   16   32 1
    35   16   33 1
@<TRIPOS>MOLECULE
ZINC00216622
 37 40 0 0 0
SMALL
NO_CHARGES


@<TRIPOS>ATOM
      1 C           3.251     4.649     9.217  C    
      2 C           2.432     3.602     8.758  C    
      3 C           1.525     3.833     7.708  C    
      4 C           1.423     5.110     7.120  C    
      5 C           2.208     6.190     7.613  C    
      6 C           3.144     5.929     8.645  C    
      7 C           2.153     7.529     6.937  C    
      8 C           1.923     8.723     7.797  C    
      9 C           1.746    10.033     7.313  C    
     10 N           1.536    10.992     8.279  N    
     11 C           1.492    10.499     9.543  C    
     12 O           1.308    11.129    10.615  O    
     13 S           1.745     8.807     9.502  S    
     14 C           1.324    12.397     8.015  C    
     15 C          -0.180    12.712     7.806  C    
     16 C          -0.489    14.131     7.538  C    
     17 O           0.464    15.090     7.476  O    
     18 S           1.689    10.378     5.593  S    
     19 C           1.462     8.756     4.801  C    
     20 C           1.098     7.609     5.784  C    
     21 C           0.954     6.232     5.080  C    
     22 O           0.564     5.244     6.055  O    
     23 O          -1.777    14.502     7.349  O    
     24 H           3.926     4.475     9.964  H    
     25 H           2.511     2.670     9.171  H    
     26 H           0.949     3.062     7.361  H    
     27 H           3.772     6.666     8.975  H    
     28 H           3.147     7.652     6.492  H    
     29 H           1.705    13.000     8.844  H    
     30 H           1.890    12.709     7.133  H    
     31 H          -0.555    12.121     6.964  H    
     32 H          -0.733    12.412     8.700  H    
     33 H           0.670     8.862     4.052  H    
     34 H           2.390     8.510     4.273  H    
     35 H           0.108     7.832     6.205  H    
     36 H           0.177     6.279     4.315  H    
     37 H           1.893     5.941     4.597  H    
@<TRIPOS>BOND
     1    1    6 ar
     2    1    2 ar
     3    2    3 ar
     4    3    4 ar
     5    4   22 1
     6    4    5 ar
     7    5    6 ar
     8    5    7 1
     9    7   20 1
    10    7    8 1
    11    8   13 1
    12    8    9 2
    13    9   10 1
    14    9   18 1
    15   10   11 1
    16   10   14 1
    17   11   12 2
    18   11   13 1
    19   14   15 1
    20   15   16 1
    21   16   17 2
    22   16   23 1
    23   18   19 1
    24   19   20 1
    25   20   21 1
    26   21   22 1
    27    1   24 1
    28    2   25 1
    29    3   26 1
    30    6   27 1
    31    7   28 1
    32   14   29 1
    33   14   30 1
    34   15   31 1
    35   15   32 1
    36   19   33 1
    37   19   34 1
    38   20   35 1
    39   21   36 1
    40   21   37 1
@<TRIPOS>MOLECULE
ZINC00240760
 26 27 0 0 0
SMALL
NO_CHARGES


@<TRIPOS>ATOM
      1 C           4.383    -9.942    -0.747  C    
      2 C           4.118    -8.488    -0.653  C    
      3 C           4.032    -7.673    -1.803  C    
      4 C           3.767    -6.296    -1.689  C    
      5 C           3.582    -5.689    -0.423  C    
      6 C           3.667    -6.513     0.728  C    
      7 C           3.935    -7.890     0.612  C    
      8 Br          3.446    -5.828     2.451  Br   
      9 N           3.295    -4.362    -0.220  N    
     10 C           3.355    -3.308    -1.024  C    
     11 O           3.735    -3.373    -2.187  O    
     12 C           3.016    -2.073    -0.505  C    
     13 C           3.027    -0.842    -1.168  C    
     14 C           2.626     0.124    -0.260  C    
     15 C           2.381    -0.534     0.941  C    
     16 O           2.621    -1.857     0.779  O    
     17 H           5.299   -10.189    -0.206  H    
     18 H           4.494   -10.272    -1.783  H    
     19 H           3.552   -10.494    -0.299  H    
     20 H           4.154    -8.078    -2.734  H    
     21 H           3.690    -5.754    -2.547  H    
     22 H           3.993    -8.460     1.459  H    
     23 H           3.028    -4.149     0.688  H    
     24 H           3.282    -0.676    -2.146  H    
     25 H           2.532     1.127    -0.436  H    
     26 H           2.069    -0.090     1.806  H    
@<TRIPOS>BOND
     1    1    2 1
     2    2    7 ar
     3    2    3 ar
     4    3    4 ar
     5    4    5 ar
     6    5    6 ar
     7    5    9 1
     8    6    7 ar
     9    6    8 1
    10    9   10 1
    11   10   11 2
    12   10   12 1
    13   12   16 1
    14   12   13 2
    15   13   14 1
    16   14   15 2
    17   15   16 1
    18    1   17 1
    19    1   18 1
    20    1   19 1
    21    3   20 1
    22    4   21 1
    23    7   22 1
    24    9   23 1
    25   13   24 1
    26   14   25 1
    27   15   26 1
@<TRIPOS>MOLECULE
ZINC00245713
 32 33 0 0 0
SMALL
NO_CHARGES


@<TRIPOS>ATOM
      1 C          -2.074     7.348     1.990  C    
      2 C          -1.947     8.709     1.648  C    
      3 C          -0.762     9.408     1.958  C    
      4 C           0.298     8.745     2.612  C    
      5 C           0.166     7.386     2.964  C    
      6 C          -1.021     6.673     2.658  C    
      7 C          -1.140     5.337     3.040  C    
      8 C          -1.207     4.290     2.191  C    
      9 C          -1.410     3.106     2.656  C    
     10 N          -1.530     2.044     3.071  N    
     11 C          -1.429     4.457     0.850  C    
     12 O          -2.606     4.459     0.503  O    
     13 N          -0.444     4.640    -0.052  N    
     14 C           0.970     4.530     0.283  C    
     15 C           1.765     5.733    -0.280  C    
     16 O           1.513     5.883    -1.688  O    
     17 C           0.122     6.070    -2.001  C    
     18 C          -0.729     4.892    -1.460  C    
     19 F          -0.649    10.666     1.649  F    
     20 H          -2.948     6.873     1.785  H    
     21 H          -2.715     9.186     1.188  H    
     22 H           1.157     9.239     2.831  H    
     23 H           0.938     6.920     3.435  H    
     24 H          -0.952     5.159     3.998  H    
     25 H           1.197     4.463     1.350  H    
     26 H           1.362     3.617    -0.173  H    
     27 H           1.493     6.646     0.253  H    
     28 H           2.834     5.562    -0.136  H    
     29 H          -0.238     7.013    -1.585  H    
     30 H           0.015     6.117    -3.086  H    
     31 H          -0.481     3.991    -2.029  H    
     32 H          -1.774     5.130    -1.681  H    
@<TRIPOS>BOND
     1    1    6 ar
     2    1    2 ar
     3    2    3 ar
     4    3    4 ar
     5    3   19 1
     6    4    5 ar
     7    5    6 ar
     8    6    7 1
     9    7    8 2
    10    8    9 1
    11    8   11 1
    12    9   10 3
    13   11   12 2
    14   11   13 1
    15   13   18 1
    16   13   14 1
    17   14   15 1
    18   15   16 1
    19   16   17 1
    20   17   18 1
    21    1   20 1
    22    2   21 1
    23    4   22 1
    24    5   23 1
    25    7   24 1
    26   14   25 1
    27   14   26 1
    28   15   27 1
    29   15   28 1
    30   17   29 1
    31   17   30 1
    32   18   31 1
    33   18   32 1
@<TRIPOS>MOLECULE
ZINC00246780
 46 49 0 0 0
SMALL
NO_CHARGES


@<TRIPOS>ATOM
      1 C           1.678     6.130     7.894  C    
      2 N           0.677     6.751     6.942  N    
      3 C          -0.719     6.215     7.255  C    
      4 C          -1.297     6.607     8.652  C    
      5 C          -0.934     7.986     9.021  C    
      6 C          -0.012     8.754     8.309  C    
      7 C           0.040     9.994     8.938  C    
      8 C           0.762    11.168     8.656  C    
      9 C           0.596    12.300     9.497  C    
     10 C          -0.294    12.212    10.599  C    
     11 C          -1.011    11.033    10.872  C    
     12 C          -0.832     9.928    10.028  C    
     13 N          -1.397     8.710    10.055  N    
     14 O           1.217    13.524     9.349  O    
     15 C           2.207    13.755     8.337  C    
     16 C           0.673     8.265     7.091  C    
     17 C           1.022     6.347     5.511  C    
     18 C           2.357     6.746     4.964  C    
     19 C           2.536     8.006     4.340  C    
     20 C           3.772     8.364     3.775  C    
     21 C           4.852     7.466     3.818  C    
     22 C           4.693     6.207     4.427  C    
     23 C           3.454     5.850     4.989  C    
     24 H           2.691     6.488     7.700  H    
     25 H           1.690     5.039     7.801  H    
     26 H           1.460     6.368     8.937  H    
     27 H          -1.428     6.595     6.507  H    
     28 H          -0.746     5.123     7.182  H    
     29 H          -2.389     6.518     8.634  H    
     30 H          -0.917     5.930     9.422  H    
     31 H           1.386    11.184     7.851  H    
     32 H          -0.423    13.019    11.211  H    
     33 H          -1.651    10.976    11.666  H    
     34 H          -2.052     8.409    10.704  H    
     35 H           3.052    13.070     8.455  H    
     36 H           2.572    14.776     8.439  H    
     37 H           1.774    13.655     7.341  H    
     38 H           1.697     8.648     7.093  H    
     39 H           0.152     8.740     6.250  H    
     40 H           0.935     5.260     5.415  H    
     41 H           0.263     6.742     4.826  H    
     42 H           1.760     8.668     4.284  H    
     43 H           3.883     9.274     3.326  H    
     44 H           5.750     7.725     3.405  H    
     45 H           5.477     5.553     4.454  H    
     46 H           3.358     4.927     5.416  H    
@<TRIPOS>BOND
     1    1    2 1
     2    2   16 1
     3    2    3 1
     4    2   17 1
     5    3    4 1
     6    4    5 1
     7    5   13 1
     8    5    6 2
     9    6    7 1
    10    6   16 1
    11    7   12 ar
    12    7    8 ar
    13    8    9 ar
    14    9   10 ar
    15    9   14 1
    16   10   11 ar
    17   11   12 ar
    18   12   13 1
    19   14   15 1
    20   17   18 1
    21   18   23 ar
    22   18   19 ar
    23   19   20 ar
    24   20   21 ar
    25   21   22 ar
    26   22   23 ar
    27    1   24 1
    28    1   25 1
    29    1   26 1
    30    3   27 1
    31    3   28 1
    32    4   29 1
    33    4   30 1
    34    8   31 1
    35   10   32 1
    36   11   33 1
    37   13   34 1
    38   15   35 1
    39   15   36 1
    40   15   37 1
    41   16   38 1
    42   16   39 1
    43   17   40 1
    44   17   41 1
    45   19   42 1
    46   20   43 1
    47   21   44 1
    48   22   45 1
    49   23   46 1
@<TRIPOS>MOLECULE
ZINC00259386
 36 38 0 0 0
SMALL
NO_CHARGES


@<TRIPOS>ATOM
      1 C          -1.336    -4.830    -6.049  C    
      2 C          -0.555    -4.076    -5.042  C    
      3 C           0.553    -3.281    -5.410  C    
      4 C           1.289    -2.583    -4.435  C    
      5 C           0.943    -2.672    -3.069  C    
      6 C          -0.181    -3.449    -2.706  C    
      7 C          -0.921    -4.144    -3.680  C    
      8 C           1.735    -1.933    -2.044  C    
      9 N           3.173    -2.207    -2.114  N    
     10 C           3.695    -3.482    -1.810  C    
     11 C           2.907    -4.529    -1.252  C    
     12 C           3.454    -5.780    -0.937  C    
     13 C           4.817    -6.012    -1.140  C    
     14 C           5.626    -4.999    -1.672  C    
     15 C           5.087    -3.736    -2.036  C    
     16 C           5.890    -2.689    -2.546  C    
     17 C           5.350    -1.458    -2.692  C    
     18 C           4.023    -1.226    -2.495  C    
     19 O           3.644    -0.083    -2.742  O    
     20 C           7.214    -2.873    -2.946  C    
     21 O           8.159    -1.907    -2.784  O    
     22 O           7.558    -3.927    -3.726  O    
     23 H          -1.315    -5.895    -5.810  H    
     24 H          -0.936    -4.701    -7.058  H    
     25 H          -2.372    -4.487    -6.047  H    
     26 H           0.833    -3.205    -6.390  H    
     27 H           2.087    -2.013    -4.729  H    
     28 H          -0.471    -3.516    -1.727  H    
     29 H          -1.728    -4.701    -3.388  H    
     30 H           1.487    -0.877    -2.190  H    
     31 H           1.384    -2.152    -1.032  H    
     32 H           1.918    -4.400    -1.048  H    
     33 H           2.863    -6.515    -0.544  H    
     34 H           5.222    -6.918    -0.891  H    
     35 H           6.622    -5.200    -1.766  H    
     36 H           5.914    -0.706    -3.032  H    
@<TRIPOS>BOND
     1    1    2 1
     2    2    7 ar
     3    2    3 ar
     4    3    4 ar
     5    4    5 ar
     6    5    6 ar
     7    5    8 1
     8    6    7 ar
     9    8    9 1
    10    9   18 1
    11    9   10 1
    12   10   15 ar
    13   10   11 ar
    14   11   12 ar
    15   12   13 ar
    16   13   14 ar
    17   14   15 ar
    18   15   16 1
    19   16   17 2
    20   16   20 1
    21   17   18 1
    22   18   19 2
    23   20   21 2
    24   20   22 1
    25    1   23 1
    26    1   24 1
    27    1   25 1
    28    3   26 1
    29    4   27 1
    30    6   28 1
    31    7   29 1
    32    8   30 1
    33    8   31 1
    34   11   32 1
    35   12   33 1
    36   13   34 1
    37   14   35 1
    38   17   36 1
@<TRIPOS>MOLECULE
ZINC00266996
 37 38 0 0 0
SMALL
NO_CHARGES


@<TRIPOS>ATOM
      1 C           3.590     7.709     8.285  C    
      2 C           2.521     8.763     8.687  C    
      3 C           1.885     8.378    10.060  C    
      4 C           0.719     9.329    10.438  C    
      5 O          -0.260     9.384     9.382  O    
      6 C           0.262     9.842     8.120  C    
      7 C           1.397     8.911     7.606  C    
      8 S           2.004     9.593     6.026  S    
      9 C           1.993     8.123     4.963  C    
     10 C           0.560     7.821     4.435  C    
     11 C           0.549     6.630     3.441  C    
     12 C           1.545     6.844     2.273  C    
     13 C           2.973     7.157     2.788  C    
     14 C           2.978     8.347     3.782  C    
     15 O           3.189    10.016     8.837  O    
     16 H           3.130     6.728     8.144  H    
     17 H           4.353     7.624     9.061  H    
     18 H           4.090     7.994     7.358  H    
     19 H           1.488     7.358    10.010  H    
     20 H           2.638     8.407    10.853  H    
     21 H           0.227     8.952    11.340  H    
     22 H           1.096    10.333    10.655  H    
     23 H          -0.565     9.848     7.402  H    
     24 H           0.625    10.871     8.225  H    
     25 H           0.937     7.933     7.433  H    
     26 H           2.351     7.269     5.537  H    
     27 H          -0.114     7.592     5.264  H    
     28 H           0.167     8.707     3.929  H    
     29 H           0.810     5.717     3.978  H    
     30 H          -0.459     6.502     3.039  H    
     31 H           1.573     5.946     1.651  H    
     32 H           1.198     7.670     1.648  H    
     33 H           3.384     6.273     3.282  H    
     34 H           3.622     7.393     1.938  H    
     35 H           2.700     9.257     3.242  H    
     36 H           3.992     8.483     4.167  H    
     37 H           3.853     9.882     9.542  H    
@<TRIPOS>BOND
     1    1    2 1
     2    2    7 1
     3    2    3 1
     4    2   15 1
     5    3    4 1
     6    4    5 1
     7    5    6 1
     8    6    7 1
     9    7    8 1
    10    8    9 1
    11    9   14 1
    12    9   10 1
    13   10   11 1
    14   11   12 1
    15   12   13 1
    16   13   14 1
    17    1   16 1
    18    1   17 1
    19    1   18 1
    20    3   19 1
    21    3   20 1
    22    4   21 1
    23    4   22 1
    24    6   23 1
    25    6   24 1
    26    7   25 1
    27    9   26 1
    28   10   27 1
    29   10   28 1
    30   11   29 1
    31   11   30 1
    32   12   31 1
    33   12   32 1
    34   13   33 1
    35   13   34 1
    36   14   35 1
    37   14   36 1
    38   15   37 1
@<TRIPOS>MOLECULE
ZINC00267029
 38 40 0 0 0
SMALL
NO_CHARGES


@<TRIPOS>ATOM
      1 C           0.449     9.481     6.599  C    
      2 O           0.625     8.119     6.212  O    
      3 C           0.103     7.030     6.834  C    
      4 O          -0.635     7.193     7.963  O    
      5 C           0.364     5.754     6.367  C    
      6 N           0.014     4.704     7.013  N    
      7 N           0.055     3.586     6.319  N    
      8 C           0.793     3.951     5.099  C    
      9 C           0.823     5.366     5.171  C    
     10 C           0.497     5.884     3.976  C    
     11 O           0.616     7.066     3.682  O    
     12 N           0.037     4.925     3.179  N    
     13 C           0.139     3.776     3.832  C    
     14 O          -0.171     2.668     3.414  O    
     15 C          -0.484     5.078     1.829  C    
     16 C          -1.751     5.987     1.784  C    
     17 C          -2.306     6.138     0.342  C    
     18 C          -1.214     6.631    -0.645  C    
     19 C           0.046     5.725    -0.611  C    
     20 C           0.604     5.575     0.831  C    
     21 H          -0.606     9.759     6.545  H    
     22 H           1.017    10.114     5.917  H    
     23 H           0.814     9.639     7.616  H    
     24 H          -0.396     4.750     7.862  H    
     25 H           0.559     2.864     6.837  H    
     26 H          -0.891     3.272     6.097  H    
     27 H           1.801     3.531     5.096  H    
     28 H          -0.806     4.096     1.463  H    
     29 H          -2.528     5.557     2.420  H    
     30 H          -1.515     6.981     2.169  H    
     31 H          -2.695     5.176    -0.003  H    
     32 H          -3.135     6.850     0.348  H    
     33 H          -1.623     6.642    -1.661  H    
     34 H          -0.929     7.655    -0.386  H    
     35 H          -0.209     4.739    -1.008  H    
     36 H           0.817     6.156    -1.254  H    
     37 H           0.998     6.542     1.154  H    
     38 H           1.433     4.864     0.818  H    
@<TRIPOS>BOND
     1    1    2 1
     2    2    3 1
     3    3    4 2
     4    3    5 1
     5    5    9 2
     6    5    6 1
     7    6    7 1
     8    7    8 1
     9    8   13 1
    10    8    9 1
    11    9   10 1
    12   10   11 2
    13   10   12 1
    14   12   13 1
    15   12   15 1
    16   13   14 2
    17   15   20 1
    18   15   16 1
    19   16   17 1
    20   17   18 1
    21   18   19 1
    22   19   20 1
    23    1   21 1
    24    1   22 1
    25    1   23 1
    26    6   24 1
    27    7   25 1
    28    7   26 1
    29    8   27 1
    30   15   28 1
    31   16   29 1
    32   16   30 1
    33   17   31 1
    34   17   32 1
    35   18   33 1
    36   18   34 1
    37   19   35 1
    38   19   36 1
    39   20   37 1
    40   20   38 1
@<TRIPOS>MOLECULE
ZINC00267752
 33 35 0 0 0
SMALL
NO_CHARGES


@<TRIPOS>ATOM
      1 C          -4.769     7.631    -4.910  C    
      2 C          -3.793     7.127    -4.029  C    
      3 C          -4.184     6.410    -2.882  C    
      4 C          -5.553     6.188    -2.603  C    
      5 C          -6.523     6.709    -3.492  C    
      6 C          -6.135     7.419    -4.642  C    
      7 C          -5.954     5.510    -1.427  C    
      8 C          -7.112     5.304     0.527  C    
      9 C          -6.185     4.087     0.335  C    
     10 N          -5.573     4.290    -0.952  N    
     11 C          -4.849     3.355    -1.595  C    
     12 O          -4.573     3.492    -2.783  O    
     13 C          -4.451     2.150    -1.039  C    
     14 C          -3.587     2.129     0.083  C    
     15 C          -3.166     0.909     0.645  C    
     16 C          -3.613    -0.308     0.098  C    
     17 C          -4.458    -0.307    -1.027  C    
     18 C          -4.866     0.914    -1.597  C    
     19 N          -6.829     6.095    -0.598  N    
     20 H          -4.488     8.158    -5.738  H    
     21 H          -2.802     7.287    -4.223  H    
     22 H          -3.458     6.062    -2.247  H    
     23 H          -7.521     6.560    -3.314  H    
     24 H          -6.843     7.783    -5.281  H    
     25 H          -8.167     5.019     0.519  H    
     26 H          -6.882     5.851     1.444  H    
     27 H          -5.432     4.059     1.128  H    
     28 H          -6.771     3.162     0.357  H    
     29 H          -3.238     3.003     0.488  H    
     30 H          -2.536     0.906     1.450  H    
     31 H          -3.317    -1.195     0.513  H    
     32 H          -4.777    -1.191    -1.427  H    
     33 H          -5.483     0.896    -2.415  H    
@<TRIPOS>BOND
     1    1    6 ar
     2    1    2 ar
     3    2    3 ar
     4    3    4 ar
     5    4    5 ar
     6    4    7 1
     7    5    6 ar
     8    7   10 1
     9    7   19 2
    10    8    9 1
    11    8   19 1
    12    9   10 1
    13   10   11 1
    14   11   12 2
    15   11   13 1
    16   13   18 ar
    17   13   14 ar
    18   14   15 ar
    19   15   16 ar
    20   16   17 ar
    21   17   18 ar
    22    1   20 1
    23    2   21 1
    24    3   22 1
    25    5   23 1
    26    6   24 1
    27    8   25 1
    28    8   26 1
    29    9   27 1
    30    9   28 1
    31   14   29 1
    32   15   30 1
    33   16   31 1
    34   17   32 1
    35   18   33 1
@<TRIPOS>MOLECULE
ZINC00271831
 30 32 0 0 0
SMALL
NO_CHARGES


@<TRIPOS>ATOM
      1 C           0.645     3.771     0.486  C    
      2 C           0.485     4.610    -0.630  C    
      3 C           1.037     5.903    -0.620  C    
      4 C           1.740     6.365     0.510  C    
      5 C           1.880     5.542     1.657  C    
      6 C           1.346     4.229     1.615  C    
      7 C           2.609     5.976     2.757  C    
      8 N           2.354     5.760     4.034  N    
      9 C           1.350     5.344     4.849  C    
     10 C           0.014     5.221     4.398  C    
     11 C          -1.011     4.806     5.266  C    
     12 C          -0.723     4.519     6.609  C    
     13 C           0.591     4.662     7.089  C    
     14 C           1.637     5.083     6.217  C    
     15 C           2.933     5.207     6.778  C    
     16 C           3.163     4.926     8.136  C    
     17 C           2.087     4.514     8.939  C    
     18 N           0.851     4.397     8.397  N    
     19 F           2.233     7.577     0.473  F    
     20 H           0.260     2.824     0.472  H    
     21 H          -0.022     4.277    -1.452  H    
     22 H           0.926     6.505    -1.439  H    
     23 H           1.475     3.588     2.403  H    
     24 H           3.456     6.460     2.574  H    
     25 H          -0.240     5.470     3.442  H    
     26 H          -1.970     4.725     4.922  H    
     27 H          -1.475     4.222     7.235  H    
     28 H           3.726     5.503     6.204  H    
     29 H           4.100     5.018     8.535  H    
     30 H           2.228     4.304     9.929  H    
@<TRIPOS>BOND
     1    1    6 ar
     2    1    2 ar
     3    2    3 ar
     4    3    4 ar
     5    4    5 ar
     6    4   19 1
     7    5    6 ar
     8    5    7 1
     9    7    8 2
    10    8    9 1
    11    9   14 ar
    12    9   10 ar
    13   10   11 ar
    14   11   12 ar
    15   12   13 ar
    16   13   18 ar
    17   13   14 ar
    18   14   15 ar
    19   15   16 ar
    20   16   17 ar
    21   17   18 ar
    22    1   20 1
    23    2   21 1
    24    3   22 1
    25    6   23 1
    26    7   24 1
    27   10   25 1
    28   11   26 1
    29   12   27 1
    30   15   28 1
    31   16   29 1
    32   17   30 1
@<TRIPOS>MOLECULE
ZINC00276426
 33 35 0 0 0
SMALL
NO_CHARGES


@<TRIPOS>ATOM
      1 C           4.826   -11.925    -0.432  C    
      2 C           4.926   -10.522     0.033  C    
      3 C           4.561   -10.151     1.346  C    
      4 C           4.663    -8.811     1.766  C    
      5 C           5.134    -7.800     0.889  C    
      6 C           5.498    -8.181    -0.427  C    
      7 C           5.394    -9.521    -0.848  C    
      8 C           5.234    -6.448     1.317  C    
      9 O           5.704    -5.501     0.472  O    
     10 O           4.837    -6.104     2.574  O    
     11 C           4.793    -4.960     3.326  C    
     12 C           4.198    -5.078     4.602  C    
     13 C           4.100    -3.969     5.464  C    
     14 C           4.604    -2.715     5.060  C    
     15 C           4.541    -1.577     5.869  C    
     16 C           5.036    -0.391     5.464  C    
     17 C           5.628    -0.274     4.213  C    
     18 O           6.132     0.905     3.789  O    
     19 O           5.702    -1.368     3.398  O    
     20 C           5.207    -2.593     3.779  C    
     21 C           5.298    -3.703     2.920  C    
     22 H           4.138   -11.981    -1.277  H    
     23 H           4.462   -12.594     0.350  H    
     24 H           5.808   -12.276    -0.752  H    
     25 H           4.216   -10.855     2.008  H    
     26 H           4.389    -8.587     2.727  H    
     27 H           5.842    -7.489    -1.097  H    
     28 H           5.664    -9.762    -1.805  H    
     29 H           3.829    -5.982     4.913  H    
     30 H           3.662    -4.086     6.385  H    
     31 H           4.121    -1.635     6.769  H    
     32 H           4.978     0.404     6.057  H    
     33 H           5.744    -3.583     2.010  H    
@<TRIPOS>BOND
     1    1    2 1
     2    2    7 ar
     3    2    3 ar
     4    3    4 ar
     5    4    5 ar
     6    5    6 ar
     7    5    8 1
     8    6    7 ar
     9    8    9 2
    10    8   10 1
    11   10   11 1
    12   11   21 ar
    13   11   12 ar
    14   12   13 ar
    15   13   14 ar
    16   14   20 ar
    17   14   15 1
    18   15   16 2
    19   16   17 1
    20   17   18 2
    21   17   19 1
    22   19   20 1
    23   20   21 ar
    24    1   22 1
    25    1   23 1
    26    1   24 1
    27    3   25 1
    28    4   26 1
    29    6   27 1
    30    7   28 1
    31   12   29 1
    32   13   30 1
    33   15   31 1
    34   16   32 1
    35   21   33 1
@<TRIPOS>MOLECULE
ZINC00288371
 35 36 0 0 0
SMALL
NO_CHARGES


@<TRIPOS>ATOM
      1 C          -2.765     3.878    -2.226  C    
      2 C          -2.268     4.949    -1.334  C    
      3 C          -1.001     5.533    -1.539  C    
      4 C          -0.523     6.557    -0.693  C    
      5 C          -1.316     6.977     0.422  C    
      6 C          -2.629     6.433     0.600  C    
      7 C          -3.081     5.421    -0.283  C    
      8 C          -3.529     6.871     1.705  C    
      9 C          -0.801     7.929     1.309  C    
     10 N           0.390     7.754     1.888  N    
     11 C           0.987     6.609     2.293  C    
     12 C           0.235     5.473     2.707  C    
     13 C           0.872     4.257     3.005  C    
     14 C           2.287     4.146     2.837  C    
     15 C           3.052     5.314     2.559  C    
     16 C           2.410     6.543     2.300  C    
     17 C           2.872     3.071     3.258  C    
     18 N           3.392     2.166     3.773  N    
     19 C           0.802     7.134    -1.090  C    
     20 H          -2.969     2.987    -1.637  H    
     21 H          -2.054     3.621    -3.012  H    
     22 H          -3.687     4.207    -2.700  H    
     23 H          -0.409     5.206    -2.316  H    
     24 H          -4.004     4.992    -0.138  H    
     25 H          -3.035     6.695     2.661  H    
     26 H          -4.482     6.330     1.717  H    
     27 H          -3.750     7.937     1.604  H    
     28 H          -1.154     8.856     1.241  H    
     29 H          -0.792     5.527     2.811  H    
     30 H           0.313     3.467     3.366  H    
     31 H           4.085     5.277     2.527  H    
     32 H           2.961     7.366     2.013  H    
     33 H           1.571     6.368    -0.960  H    
     34 H           1.097     8.025    -0.529  H    
     35 H           0.770     7.415    -2.149  H    
@<TRIPOS>BOND
     1    1    2 1
     2    2    7 ar
     3    2    3 ar
     4    3    4 ar
     5    4    5 ar
     6    4   19 1
     7    5    6 ar
     8    5    9 1
     9    6    7 ar
    10    6    8 1
    11    9   10 2
    12   10   11 1
    13   11   16 ar
    14   11   12 ar
    15   12   13 ar
    16   13   14 ar
    17   14   15 ar
    18   14   17 1
    19   15   16 ar
    20   17   18 3
    21    1   20 1
    22    1   21 1
    23    1   22 1
    24    3   23 1
    25    7   24 1
    26    8   25 1
    27    8   26 1
    28    8   27 1
    29    9   28 1
    30   12   29 1
    31   13   30 1
    32   15   31 1
    33   16   32 1
    34   19   33 1
    35   19   34 1
    36   19   35 1
@<TRIPOS>MOLECULE
ZINC00296579
 29 31 0 0 0
SMALL
NO_CHARGES


@<TRIPOS>ATOM
      1 C          -4.834     5.115     2.506  C    
      2 C          -3.471     5.391     2.713  C    
      3 C          -2.635     5.169     1.604  C    
      4 S          -3.667     4.609     0.341  S    
      5 C          -5.140     4.662     1.224  C    
      6 C          -1.262     5.383     1.587  C    
      7 C          -0.428     5.144     0.560  C    
      8 C           0.917     5.367     0.545  C    
      9 O           1.692     5.868     1.533  O    
     10 O           1.366     4.989    -0.664  O    
     11 C           0.311     4.554    -1.342  C    
     12 N          -0.727     4.657    -0.591  N    
     13 C           0.319     4.050    -2.649  C    
     14 C          -0.879     3.516    -3.190  C    
     15 C          -0.930     2.984    -4.489  C    
     16 C           0.216     2.961    -5.317  C    
     17 C           1.413     3.496    -4.785  C    
     18 C           1.478     4.033    -3.480  C    
     19 Cl          2.994     4.646    -3.018  Cl   
     20 N           0.161     2.441    -6.579  N    
     21 O           1.118     2.407    -7.312  O    
     22 O          -0.936     1.942    -7.083  O    
     23 H          -5.542     5.236     3.233  H    
     24 H          -3.121     5.731     3.612  H    
     25 H          -6.063     4.409     0.872  H    
     26 H          -0.860     5.751     2.421  H    
     27 H          -1.743     3.500    -2.639  H    
     28 H          -1.822     2.611    -4.824  H    
     29 H           2.259     3.497    -5.361  H    
@<TRIPOS>BOND
     1    1    5 2
     2    1    2 1
     3    2    3 2
     4    3    4 1
     5    3    6 1
     6    4    5 1
     7    6    7 2
     8    7   12 1
     9    7    8 1
    10    8    9 2
    11    8   10 1
    12   10   11 1
    13   11   12 2
    14   11   13 1
    15   13   18 ar
    16   13   14 ar
    17   14   15 ar
    18   15   16 ar
    19   16   17 ar
    20   16   20 1
    21   17   18 ar
    22   18   19 1
    23   20   21 2
    24   20   22 1
    25    1   23 1
    26    2   24 1
    27    5   25 1
    28    6   26 1
    29   14   27 1
    30   15   28 1
    31   17   29 1
@<TRIPOS>MOLECULE
ZINC00336669
 27 28 0 0 0
SMALL
NO_CHARGES


@<TRIPOS>ATOM
      1 C          -0.363     3.325    -7.169  C    
      2 C           0.772     2.647    -6.555  C    
      3 O           1.403     1.960    -7.347  O    
      4 N           1.152     2.706    -5.266  N    
      5 C           0.510     3.398    -4.286  C    
      6 C           1.145     3.255    -3.053  C    
      7 C           2.250     2.451    -3.311  C    
      8 C           2.232     2.114    -4.674  C    
      9 C           3.263     1.282    -5.185  C    
     10 C           4.268     0.796    -4.323  C    
     11 C           4.262     1.138    -2.957  C    
     12 C           3.250     1.973    -2.439  C    
     13 Br          5.587     0.479    -1.827  Br   
     14 C           0.803     3.825    -1.830  C    
     15 C          -0.424     4.191    -1.416  C    
     16 N          -1.540     3.950    -2.037  N    
     17 O          -1.845     2.855    -2.318  O    
     18 O          -2.471     4.818    -2.014  O    
     19 H          -0.004     3.975    -7.971  H    
     20 H          -0.940     3.947    -6.491  H    
     21 H          -1.046     2.587    -7.593  H    
     22 H          -0.322     3.974    -4.406  H    
     23 H           3.292     1.017    -6.169  H    
     24 H           5.008     0.191    -4.692  H    
     25 H           3.239     2.215    -1.445  H    
     26 H           1.547     3.969    -1.186  H    
     27 H          -0.491     4.641    -0.529  H    
@<TRIPOS>BOND
     1    1    2 1
     2    2    3 2
     3    2    4 1
     4    4    8 1
     5    4    5 1
     6    5    6 2
     7    6    7 1
     8    6   14 1
     9    7   12 ar
    10    7    8 ar
    11    8    9 ar
    12    9   10 ar
    13   10   11 ar
    14   11   12 ar
    15   11   13 1
    16   14   15 2
    17   15   16 1
    18   16   17 2
    19   16   18 1
    20    1   19 1
    21    1   20 1
    22    1   21 1
    23    5   22 1
    24    9   23 1
    25   10   24 1
    26   12   25 1
    27   14   26 1
    28   15   27 1
@<TRIPOS>MOLECULE
ZINC00338625
 34 37 0 0 0
SMALL
NO_CHARGES


@<TRIPOS>ATOM
      1 C           6.654    -1.860     1.681  C    
      2 C           6.499    -0.563     2.205  C    
      3 C           5.625     0.352     1.592  C    
      4 C           4.893    -0.039     0.447  C    
      5 C           5.050    -1.345    -0.066  C    
      6 C           5.928    -2.270     0.543  C    
      7 N           6.126    -3.541     0.110  N    
      8 C           5.471    -4.190    -0.982  C    
      9 N           5.989    -5.526    -1.131  N    
     10 C           7.203    -5.824    -1.607  C    
     11 O           8.010    -5.030    -2.075  O    
     12 C           7.220    -7.226    -1.913  C    
     13 C           8.171    -8.470    -1.972  C    
     14 C           7.532    -9.516    -2.747  C    
     15 C           6.474    -9.912    -2.043  C    
     16 C           6.573    -9.220    -0.777  C    
     17 C           6.360    -7.681    -0.714  C    
     18 C           5.361    -6.655    -0.790  C    
     19 O           4.284    -6.732    -0.210  O    
     20 O           8.012    -9.156    -0.720  O    
     21 Cl          3.827     1.011    -0.350  Cl   
     22 Cl          5.484     1.904     2.270  Cl   
     23 H           7.294    -2.509     2.149  H    
     24 H           7.034    -0.293     3.037  H    
     25 H           4.516    -1.617    -0.894  H    
     26 H           6.764    -4.077     0.606  H    
     27 H           4.393    -4.205    -0.788  H    
     28 H           5.636    -3.631    -1.909  H    
     29 H           6.663    -7.245    -2.866  H    
     30 H           9.203    -8.255    -2.256  H    
     31 H           7.871    -9.932    -3.585  H    
     32 H           5.910   -10.708    -2.237  H    
     33 H           6.145    -9.768     0.066  H    
     34 H           6.826    -7.436     0.261  H    
@<TRIPOS>BOND
     1    1    6 ar
     2    1    2 ar
     3    2    3 ar
     4    3    4 ar
     5    3   22 1
     6    4    5 ar
     7    4   21 1
     8    5    6 ar
     9    6    7 1
    10    7    8 1
    11    8    9 1
    12    9   18 1
    13    9   10 1
    14   10   11 2
    15   10   12 1
    16   12   17 1
    17   12   13 1
    18   13   20 1
    19   13   14 1
    20   14   15 2
    21   15   16 1
    22   16   17 1
    23   16   20 1
    24   17   18 1
    25   18   19 2
    26    1   23 1
    27    2   24 1
    28    5   25 1
    29    7   26 1
    30    8   27 1
    31    8   28 1
    32   12   29 1
    33   13   30 1
    34   14   31 1
    35   15   32 1
    36   16   33 1
    37   17   34 1
@<TRIPOS>MOLECULE
ZINC00340615
 37 38 0 0 0
SMALL
NO_CHARGES


@<TRIPOS>ATOM
      1 C           2.615     4.325     2.416  C    
      2 C           3.405     3.076     2.873  C    
      3 C           2.461     1.864     3.117  C    
      4 N           1.634     1.598     1.943  N    
      5 C           0.821     2.738     1.522  C    
      6 C           1.697     3.981     1.217  C    
      7 C           1.601     0.418     1.278  C    
      8 O           1.104     0.399     0.156  O    
      9 C           2.227    -0.852     1.688  C    
     10 C           3.671    -0.953     1.097  C    
     11 C           4.424    -2.208     1.616  C    
     12 C           3.618    -3.517     1.399  C    
     13 C           2.176    -3.412     1.964  C    
     14 C           1.389    -2.167     1.433  C    
     15 C           0.920    -2.401     0.045  C    
     16 O           1.758    -2.423    -1.015  O    
     17 O          -0.386    -2.688    -0.188  O    
     18 H           3.312     5.121     2.132  H    
     19 H           2.005     4.692     3.248  H    
     20 H           4.140     2.814     2.103  H    
     21 H           3.950     3.309     3.792  H    
     22 H           3.113     1.046     3.418  H    
     23 H           1.810     2.082     3.971  H    
     24 H           0.205     2.544     0.641  H    
     25 H           0.125     2.985     2.325  H    
     26 H           1.054     4.838     0.999  H    
     27 H           2.314     3.785     0.334  H    
     28 H           2.327    -0.841     2.776  H    
     29 H           3.630    -0.984     0.006  H    
     30 H           4.250    -0.067     1.374  H    
     31 H           5.387    -2.288     1.101  H    
     32 H           4.631    -2.080     2.685  H    
     33 H           3.585    -3.752     0.334  H    
     34 H           4.137    -4.337     1.899  H    
     35 H           1.634    -4.333     1.728  H    
     36 H           2.241    -3.353     3.055  H    
     37 H           0.490    -2.088     2.058  H    
@<TRIPOS>BOND
     1    1    6 1
     2    1    2 1
     3    2    3 1
     4    3    4 1
     5    4    5 1
     6    4    7 1
     7    5    6 1
     8    7    8 2
     9    7    9 1
    10    9   14 1
    11    9   10 1
    12   10   11 1
    13   11   12 1
    14   12   13 1
    15   13   14 1
    16   14   15 1
    17   15   16 2
    18   15   17 1
    19    1   18 1
    20    1   19 1
    21    2   20 1
    22    2   21 1
    23    3   22 1
    24    3   23 1
    25    5   24 1
    26    5   25 1
    27    6   26 1
    28    6   27 1
    29    9   28 1
    30   10   29 1
    31   10   30 1
    32   11   31 1
    33   11   32 1
    34   12   33 1
    35   12   34 1
    36   13   35 1
    37   13   36 1
    38   14   37 1
@<TRIPOS>MOLECULE
ZINC00350948
 38 40 0 0 0
SMALL
NO_CHARGES


@<TRIPOS>ATOM
      1 C           7.656    -7.314    -0.712  C    
      2 C           6.225    -7.365    -0.149  C    
      3 O           6.266    -7.896     1.190  O    
      4 C           5.038    -7.942     1.800  C    
      5 C           4.276    -9.123     1.678  C    
      6 C           3.021    -9.227     2.302  C    
      7 C           2.531    -8.159     3.073  C    
      8 C           3.292    -6.985     3.212  C    
      9 C           4.548    -6.851     2.567  C    
     10 C           5.327    -5.712     2.742  C    
     11 C           4.934    -4.425     2.640  C    
     12 C           3.713    -3.928     2.167  C    
     13 O           2.921    -4.583     1.501  O    
     14 C           3.631    -2.450     2.163  C    
     15 C           4.848    -1.960     1.289  C    
     16 C           6.163    -2.639     1.852  C    
     17 N           5.794    -3.449     2.979  N    
     18 C           5.303    -2.671     4.083  C    
     19 C           3.937    -2.002     3.642  C    
     20 H           8.278    -6.664    -0.091  H    
     21 H           7.642    -6.922    -1.730  H    
     22 H           8.093    -8.315    -0.725  H    
     23 H           5.814    -6.352    -0.158  H    
     24 H           5.613    -8.000    -0.797  H    
     25 H           4.634    -9.909     1.132  H    
     26 H           2.471   -10.084     2.207  H    
     27 H           1.626    -8.242     3.542  H    
     28 H           2.929    -6.235     3.807  H    
     29 H           6.290    -5.871     2.936  H    
     30 H           2.675    -2.061     1.799  H    
     31 H           4.696    -2.245     0.243  H    
     32 H           4.931    -0.871     1.330  H    
     33 H           6.633    -3.253     1.075  H    
     34 H           6.895    -1.876     2.135  H    
     35 H           5.144    -3.306     4.962  H    
     36 H           6.025    -1.903     4.378  H    
     37 H           4.006    -0.912     3.703  H    
     38 H           3.127    -2.324     4.304  H    
@<TRIPOS>BOND
     1    1    2 1
     2    2    3 1
     3    3    4 1
     4    4    9 ar
     5    4    5 ar
     6    5    6 ar
     7    6    7 ar
     8    7    8 ar
     9    8    9 ar
    10    9   10 1
    11   10   11 2
    12   11   17 1
    13   11   12 1
    14   12   13 2
    15   12   14 1
    16   14   19 1
    17   14   15 1
    18   15   16 1
    19   16   17 1
    20   17   18 1
    21   18   19 1
    22    1   20 1
    23    1   21 1
    24    1   22 1
    25    2   23 1
    26    2   24 1
    27    5   25 1
    28    6   26 1
    29    7   27 1
    30    8   28 1
    31   10   29 1
    32   14   30 1
    33   15   31 1
    34   15   32 1
    35   16   33 1
    36   16   34 1
    37   18   35 1
    38   18   36 1
    39   19   37 1
    40   19   38 1
@<TRIPOS>MOLECULE
ZINC00352755
 47 49 0 0 0
SMALL
NO_CHARGES


@<TRIPOS>ATOM
      1 C          -0.904     4.643    -5.321  C    
      2 C           0.238     4.018    -4.603  C    
      3 C          -0.026     3.130    -3.535  C    
      4 C           1.023     2.508    -2.835  C    
      5 C           2.368     2.745    -3.183  C    
      6 C           2.634     3.652    -4.238  C    
      7 C           1.591     4.285    -4.959  C    
      8 C           1.939     5.208    -6.072  C    
      9 N           3.295     2.069    -2.435  N    
     10 C           4.606     1.891    -2.581  C    
     11 O           5.220     2.360    -3.533  O    
     12 C           5.302     1.073    -1.589  C    
     13 C           4.789    -0.410    -1.597  C    
     14 C           5.847    -1.133    -0.715  C    
     15 C           6.841     0.024    -0.354  C    
     16 C           6.874     0.912    -1.650  C    
     17 C           7.720     2.241    -1.508  C    
     18 C           7.451     0.213    -2.944  C    
     19 C           6.109     0.893     0.567  C    
     20 O           6.376     1.088     1.746  O    
     21 C           5.083     1.623    -0.134  C    
     22 C           8.199    -0.502     0.189  C    
     23 H          -0.841     5.729    -5.231  H    
     24 H          -1.872     4.328    -4.922  H    
     25 H          -0.870     4.365    -6.376  H    
     26 H          -0.989     2.920    -3.255  H    
     27 H           0.792     1.863    -2.068  H    
     28 H           3.603     3.860    -4.478  H    
     29 H           1.517     4.833    -7.005  H    
     30 H           3.018     5.309    -6.216  H    
     31 H           1.540     6.202    -5.866  H    
     32 H           2.919     1.610    -1.666  H    
     33 H           3.786    -0.508    -1.169  H    
     34 H           4.763    -0.830    -2.607  H    
     35 H           5.392    -1.574     0.175  H    
     36 H           6.344    -1.930    -1.275  H    
     37 H           7.537     2.905    -2.356  H    
     38 H           8.791     2.012    -1.486  H    
     39 H           7.507     2.807    -0.601  H    
     40 H           6.962    -0.724    -3.201  H    
     41 H           8.514    -0.010    -2.812  H    
     42 H           7.357     0.872    -3.808  H    
     43 H           5.246     2.702    -0.069  H    
     44 H           4.094     1.391     0.274  H    
     45 H           8.037    -1.115     1.077  H    
     46 H           8.856     0.329     0.460  H    
     47 H           8.702    -1.112    -0.562  H    
@<TRIPOS>BOND
     1    1    2 1
     2    2    7 ar
     3    2    3 ar
     4    3    4 ar
     5    4    5 ar
     6    5    6 ar
     7    5    9 1
     8    6    7 ar
     9    7    8 1
    10    9   10 1
    11   10   11 2
    12   10   12 1
    13   12   16 1
    14   12   21 1
    15   12   13 1
    16   13   14 1
    17   14   15 1
    18   15   16 1
    19   15   19 1
    20   15   22 1
    21   16   17 1
    22   16   18 1
    23   19   20 2
    24   19   21 1
    25    1   23 1
    26    1   24 1
    27    1   25 1
    28    3   26 1
    29    4   27 1
    30    6   28 1
    31    8   29 1
    32    8   30 1
    33    8   31 1
    34    9   32 1
    35   13   33 1
    36   13   34 1
    37   14   35 1
    38   14   36 1
    39   17   37 1
    40   17   38 1
    41   17   39 1
    42   18   40 1
    43   18   41 1
    44   18   42 1
    45   21   43 1
    46   21   44 1
    47   22   45 1
    48   22   46 1
    49   22   47 1
@<TRIPOS>MOLECULE
ZINC00359595
 31 33 0 0 0
SMALL
NO_CHARGES


@<TRIPOS>ATOM
      1 C           1.093    -0.176     0.518  C    
      2 C           1.677     0.299    -0.672  C    
      3 C           2.877     1.035    -0.629  C    
      4 C           3.500     1.266     0.611  C    
      5 C           2.921     0.779     1.799  C    
      6 C           1.708     0.053     1.773  C    
      7 N           1.143    -0.423     2.944  N    
      8 C          -0.140    -0.378     3.280  C    
      9 O          -1.061     0.113     2.640  O    
     10 C          -0.294    -0.926     4.486  C    
     11 C           0.903    -1.316     4.904  C    
     12 C           1.783    -1.006     3.952  C    
     13 O           2.973    -1.291     4.014  O    
     14 O           3.484     1.493    -1.770  O    
     15 C           2.807     2.512    -2.394  C    
     16 C           2.576     3.759    -1.767  C    
     17 C           1.900     4.783    -2.454  C    
     18 C           1.467     4.582    -3.780  C    
     19 C           1.721     3.352    -4.418  C    
     20 C           2.389     2.321    -3.729  C    
     21 Br          0.575     5.939    -4.689  Br   
     22 H           0.225    -0.713     0.457  H    
     23 H           1.218     0.118    -1.568  H    
     24 H           4.377     1.788     0.657  H    
     25 H           3.386     0.978     2.689  H    
     26 H          -1.141    -1.000     4.997  H    
     27 H           1.104    -1.745     5.775  H    
     28 H           2.897     3.919    -0.809  H    
     29 H           1.732     5.677    -1.990  H    
     30 H           1.417     3.205    -5.380  H    
     31 H           2.576     1.435    -4.204  H    
@<TRIPOS>BOND
     1    1    6 ar
     2    1    2 ar
     3    2    3 ar
     4    3    4 ar
     5    3   14 1
     6    4    5 ar
     7    5    6 ar
     8    6    7 1
     9    7   12 1
    10    7    8 1
    11    8    9 2
    12    8   10 1
    13   10   11 2
    14   11   12 1
    15   12   13 2
    16   14   15 1
    17   15   20 ar
    18   15   16 ar
    19   16   17 ar
    20   17   18 ar
    21   18   19 ar
    22   18   21 1
    23   19   20 ar
    24    1   22 1
    25    2   23 1
    26    4   24 1
    27    5   25 1
    28   10   26 1
    29   11   27 1
    30   16   28 1
    31   17   29 1
    32   19   30 1
    33   20   31 1
@<TRIPOS>MOLECULE
ZINC00362949
 31 33 0 0 0
SMALL
NO_CHARGES


@<TRIPOS>ATOM
      1 C           3.269    -5.495    -0.637  C    
      2 C           3.239    -6.862    -0.314  C    
      3 C           3.972    -7.341     0.790  C    
      4 C           3.956    -8.705     1.152  C    
      5 C           4.694    -9.153     2.261  C    
      6 C           5.447    -8.225     2.997  C    
      7 N           5.450    -6.920     2.627  N    
      8 C           4.750    -6.433     1.564  C    
      9 C           4.802    -5.054     1.233  C    
     10 C           4.031    -4.601     0.132  C    
     11 N           5.561    -4.238     2.037  N    
     12 C           6.104    -3.042     1.823  C    
     13 O           5.977    -2.493     0.735  O    
     14 C           6.870    -2.403     2.811  C    
     15 C           7.439    -3.116     3.901  C    
     16 C           8.228    -2.469     4.870  C    
     17 C           8.462    -1.085     4.782  C    
     18 C           7.905    -0.354     3.719  C    
     19 C           7.121    -1.005     2.749  C    
     20 Cl          9.417    -0.307     5.941  Cl   
     21 H           2.720    -5.147    -1.427  H    
     22 H           2.672    -7.497    -0.881  H    
     23 H           3.408    -9.382     0.614  H    
     24 H           4.684   -10.139     2.528  H    
     25 H           5.993    -8.525     3.806  H    
     26 H           3.989    -3.612    -0.111  H    
     27 H           5.766    -4.623     2.901  H    
     28 H           7.315    -4.126     3.990  H    
     29 H           8.633    -3.013     5.635  H    
     30 H           8.067     0.654     3.644  H    
     31 H           6.728    -0.437     1.994  H    
@<TRIPOS>BOND
     1    1   10 ar
     2    1    2 ar
     3    2    3 ar
     4    3    8 ar
     5    3    4 ar
     6    4    5 ar
     7    5    6 ar
     8    6    7 ar
     9    7    8 ar
    10    8    9 ar
    11    9   10 ar
    12    9   11 1
    13   11   12 1
    14   12   13 2
    15   12   14 1
    16   14   19 ar
    17   14   15 ar
    18   15   16 ar
    19   16   17 ar
    20   17   18 ar
    21   17   20 1
    22   18   19 ar
    23    1   21 1
    24    2   22 1
    25    4   23 1
    26    5   24 1
    27    6   25 1
    28   10   26 1
    29   11   27 1
    30   15   28 1
    31   16   29 1
    32   18   30 1
    33   19   31 1
@<TRIPOS>MOLECULE
ZINC00375248
 38 40 0 0 0
SMALL
NO_CHARGES


@<TRIPOS>ATOM
      1 C           6.914    -9.381    -0.885  C    
      2 C           5.580    -8.774    -0.763  C    
      3 C           4.503    -8.922    -1.629  C    
      4 C           3.466    -8.164    -1.111  C    
      5 C           3.934    -7.545     0.053  C    
      6 O           5.216    -7.945     0.246  O    
      7 C           3.209    -6.726     0.909  C    
      8 O           1.995    -6.899     0.871  O    
      9 N           3.721    -5.828     1.773  N    
     10 C           5.074    -5.289     1.697  C    
     11 C           5.822    -5.497     3.044  C    
     12 N           5.016    -4.976     4.139  N    
     13 C           3.668    -5.521     4.202  C    
     14 C           2.928    -5.272     2.864  C    
     15 C           5.471    -3.998     4.998  C    
     16 C           6.838    -3.925     5.381  C    
     17 C           7.311    -2.930     6.259  C    
     18 C           6.427    -1.966     6.774  C    
     19 C           5.071    -2.008     6.411  C    
     20 C           4.604    -3.011     5.544  C    
     21 F           6.864    -1.040     7.584  F    
     22 H           7.662    -8.591    -0.991  H    
     23 H           6.974   -10.041    -1.757  H    
     24 H           7.138    -9.962     0.013  H    
     25 H           4.473    -9.486    -2.486  H    
     26 H           2.534    -8.072    -1.524  H    
     27 H           5.679    -5.699     0.888  H    
     28 H           5.005    -4.212     1.509  H    
     29 H           6.015    -6.565     3.201  H    
     30 H           6.794    -5.005     2.943  H    
     31 H           3.738    -6.601     4.371  H    
     32 H           3.071    -5.126     5.029  H    
     33 H           2.795    -4.195     2.716  H    
     34 H           1.931    -5.708     2.958  H    
     35 H           7.509    -4.629     5.068  H    
     36 H           8.298    -2.918     6.532  H    
     37 H           4.422    -1.300     6.767  H    
     38 H           3.620    -2.972     5.268  H    
@<TRIPOS>BOND
     1    1    2 1
     2    2    6 1
     3    2    3 2
     4    3    4 1
     5    4    5 2
     6    5    6 1
     7    5    7 1
     8    7    8 2
     9    7    9 1
    10    9   14 1
    11    9   10 1
    12   10   11 1
    13   11   12 1
    14   12   13 1
    15   12   15 1
    16   13   14 1
    17   15   20 ar
    18   15   16 ar
    19   16   17 ar
    20   17   18 ar
    21   18   19 ar
    22   18   21 1
    23   19   20 ar
    24    1   22 1
    25    1   23 1
    26    1   24 1
    27    3   25 1
    28    4   26 1
    29   10   27 1
    30   10   28 1
    31   11   29 1
    32   11   30 1
    33   13   31 1
    34   13   32 1
    35   14   33 1
    36   14   34 1
    37   16   35 1
    38   17   36 1
    39   19   37 1
    40   20   38 1
@<TRIPOS>MOLECULE
ZINC00377508
 34 35 0 0 0
SMALL
NO_CHARGES


@<TRIPOS>ATOM
      1 C           2.862    -0.846    -2.730  C    
      2 C           2.297     0.158    -3.783  C    
      3 C           3.166     1.449    -3.761  C    
      4 C           2.158    -0.472    -5.224  C    
      5 C           1.565     0.500    -6.188  C    
      6 C           2.069     1.351    -7.163  C    
      7 N           1.003     1.836    -7.829  N    
      8 N          -0.112     1.341    -7.379  N    
      9 C           0.189     0.509    -6.372  C    
     10 O          -0.625    -0.372    -5.697  O    
     11 C          -0.035    -1.568    -5.411  C    
     12 C           1.305    -1.690    -5.201  C    
     13 C           1.874    -2.836    -5.131  C    
     14 N           2.382    -3.859    -5.046  N    
     15 N          -0.850    -2.563    -5.381  N    
     16 C           3.480     1.624    -7.498  C    
     17 O           3.740     3.006    -7.810  O    
     18 C           3.699     3.918    -6.704  C    
     19 H           3.792    -1.294    -3.087  H    
     20 H           2.139    -1.640    -2.534  H    
     21 H           3.056    -0.348    -1.778  H    
     22 H           1.300     0.447    -3.432  H    
     23 H           3.259     1.835    -2.742  H    
     24 H           2.699     2.232    -4.359  H    
     25 H           4.167     1.249    -4.150  H    
     26 H           3.162    -0.710    -5.594  H    
     27 H           1.058     2.445    -8.584  H    
     28 H          -0.536    -3.425    -5.199  H    
     29 H          -1.764    -2.428    -5.534  H    
     30 H           4.150     1.269    -6.711  H    
     31 H           3.711     1.049    -8.397  H    
     32 H           2.702     3.949    -6.253  H    
     33 H           3.934     4.917    -7.078  H    
     34 H           4.440     3.652    -5.942  H    
@<TRIPOS>BOND
     1    1    2 1
     2    2    3 1
     3    2    4 1
     4    4   12 1
     5    4    5 1
     6    5    9 1
     7    5    6 2
     8    6    7 1
     9    6   16 1
    10    7    8 1
    11    8    9 2
    12    9   10 1
    13   10   11 1
    14   11   12 2
    15   11   15 1
    16   12   13 1
    17   13   14 3
    18   16   17 1
    19   17   18 1
    20    1   19 1
    21    1   20 1
    22    1   21 1
    23    2   22 1
    24    3   23 1
    25    3   24 1
    26    3   25 1
    27    4   26 1
    28    7   27 1
    29   15   28 1
    30   15   29 1
    31   16   30 1
    32   16   31 1
    33   18   32 1
    34   18   33 1
    35   18   34 1
@<TRIPOS>MOLECULE
ZINC00382325
 40 43 0 0 0
SMALL
NO_CHARGES


@<TRIPOS>ATOM
      1 C          -0.835    -3.111    -6.221  C    
      2 C          -1.310    -3.375    -4.835  C    
      3 C          -1.571    -4.714    -4.447  C    
      4 C          -2.006    -5.022    -3.144  C    
      5 C          -2.193    -3.989    -2.209  C    
      6 C          -1.935    -2.656    -2.576  C    
      7 C          -1.481    -2.332    -3.879  C    
      8 C          -1.257    -0.968    -4.174  C    
      9 N          -1.804    -0.307    -5.213  N    
     10 N          -1.468     0.950    -5.166  N    
     11 C          -0.696     1.100    -4.082  C    
     12 N          -0.547    -0.063    -3.472  N    
     13 C           0.238     0.010    -2.419  C    
     14 O           0.525    -0.979    -1.757  O    
     15 C           0.684     1.278    -2.188  C    
     16 C           1.471     1.714    -1.184  C    
     17 C           2.106     0.912    -0.254  C    
     18 C           3.319     0.266    -0.583  C    
     19 C           3.983    -0.528     0.373  C    
     20 C           3.440    -0.706     1.669  C    
     21 C           2.241    -0.038     1.992  C    
     22 C           1.580     0.771     1.047  C    
     23 O           4.020    -1.437     2.680  O    
     24 C           4.925    -2.511     2.368  C    
     25 S           0.124     2.427    -3.346  S    
     26 H          -1.585    -2.535    -6.767  H    
     27 H          -0.648    -4.034    -6.779  H    
     28 H           0.102    -2.544    -6.190  H    
     29 H          -1.450    -5.483    -5.114  H    
     30 H          -2.189    -5.992    -2.881  H    
     31 H          -2.519    -4.209    -1.264  H    
     32 H          -2.103    -1.921    -1.884  H    
     33 H           1.670     2.685    -1.129  H    
     34 H           3.734     0.390    -1.511  H    
     35 H           4.868    -0.971     0.113  H    
     36 H           1.842    -0.137     2.928  H    
     37 H           0.719     1.256     1.317  H    
     38 H           4.478    -3.221     1.666  H    
     39 H           5.166    -3.039     3.291  H    
     40 H           5.856    -2.119     1.950  H    
@<TRIPOS>BOND
     1    1    2 1
     2    2    7 ar
     3    2    3 ar
     4    3    4 ar
     5    4    5 ar
     6    5    6 ar
     7    6    7 ar
     8    7    8 1
     9    8   12 1
    10    8    9 2
    11    9   10 1
    12   10   11 2
    13   11   25 1
    14   11   12 1
    15   12   13 1
    16   13   14 2
    17   13   15 1
    18   15   16 2
    19   15   25 1
    20   16   17 1
    21   17   22 ar
    22   17   18 ar
    23   18   19 ar
    24   19   20 ar
    25   20   21 ar
    26   20   23 1
    27   21   22 ar
    28   23   24 1
    29    1   26 1
    30    1   27 1
    31    1   28 1
    32    3   29 1
    33    4   30 1
    34    5   31 1
    35    6   32 1
    36   16   33 1
    37   18   34 1
    38   19   35 1
    39   21   36 1
    40   22   37 1
    41   24   38 1
    42   24   39 1
    43   24   40 1
@<TRIPOS>MOLECULE
ZINC00387318
 50 52 0 0 0
SMALL
NO_CHARGES


@<TRIPOS>ATOM
      1 C           9.897    -9.140     3.042  C    
      2 C           8.720    -9.409     2.063  C    
      3 O           7.522    -9.388     2.862  O    
      4 C           6.523    -8.468     2.780  C    
      5 O           5.452    -8.738     3.560  O    
      6 C           6.574    -7.410     1.862  C    
      7 C           5.598    -6.482     1.714  C    
      8 C           4.534    -6.221     2.569  C    
      9 C           4.736    -5.938     3.937  C    
     10 C           3.646    -5.653     4.780  C    
     11 C           2.307    -5.639     4.303  C    
     12 C           2.132    -5.894     2.915  C    
     13 C           3.218    -6.166     2.063  C    
     14 N           1.236    -5.401     5.141  N    
     15 C          -0.132    -5.322     4.708  C    
     16 C          -0.954    -4.858     5.922  C    
     17 C          -0.091    -5.261     7.119  C    
     18 C           1.343    -5.221     6.563  C    
     19 C           7.702    -7.382     1.032  C    
     20 O           7.906    -6.421     0.100  O    
     21 O           8.700    -8.300     1.143  O    
     22 C           8.785   -10.771     1.254  C    
     23 C           8.698   -12.014     2.204  C    
     24 C           7.577   -10.849     0.258  C    
     25 C          10.103   -10.882     0.416  C    
     26 H          10.848    -9.082     2.509  H    
     27 H           9.964    -9.919     3.802  H    
     28 H           9.742    -8.186     3.552  H    
     29 H           5.617    -5.905     0.903  H    
     30 H           5.682    -5.930     4.330  H    
     31 H           3.854    -5.452     5.759  H    
     32 H           1.201    -5.902     2.498  H    
     33 H           3.036    -6.349     1.072  H    
     34 H          -0.254    -4.600     3.895  H    
     35 H          -0.470    -6.308     4.374  H    
     36 H          -1.079    -3.771     5.902  H    
     37 H          -1.940    -5.332     5.954  H    
     38 H          -0.221    -4.581     7.964  H    
     39 H          -0.344    -6.279     7.434  H    
     40 H           1.926    -6.020     7.029  H    
     41 H           1.810    -4.256     6.780  H    
     42 H           9.547   -12.049     2.887  H    
     43 H           8.699   -12.945     1.632  H    
     44 H           7.782   -11.989     2.800  H    
     45 H           6.625   -10.763     0.787  H    
     46 H           7.571   -11.799    -0.283  H    
     47 H           7.627   -10.047    -0.483  H    
     48 H          10.239   -10.004    -0.218  H    
     49 H          10.083   -11.764    -0.228  H    
     50 H          10.977   -10.975     1.066  H    
@<TRIPOS>BOND
     1    1    2 1
     2    2   21 1
     3    2    3 1
     4    2   22 1
     5    3    4 1
     6    4    5 2
     7    4    6 1
     8    6    7 2
     9    6   19 1
    10    7    8 1
    11    8   13 ar
    12    8    9 ar
    13    9   10 ar
    14   10   11 ar
    15   11   12 ar
    16   11   14 1
    17   12   13 ar
    18   14   18 1
    19   14   15 1
    20   15   16 1
    21   16   17 1
    22   17   18 1
    23   19   20 2
    24   19   21 1
    25   22   23 1
    26   22   24 1
    27   22   25 1
    28    1   26 1
    29    1   27 1
    30    1   28 1
    31    7   29 1
    32    9   30 1
    33   10   31 1
    34   12   32 1
    35   13   33 1
    36   15   34 1
    37   15   35 1
    38   16   36 1
    39   16   37 1
    40   17   38 1
    41   17   39 1
    42   18   40 1
    43   18   41 1
    44   23   42 1
    45   23   43 1
    46   23   44 1
    47   24   45 1
    48   24   46 1
    49   24   47 1
    50   25   48 1
    51   25   49 1
    52   25   50 1
@<TRIPOS>MOLECULE
ZINC00390768
 26 27 0 0 0
SMALL
NO_CHARGES


@<TRIPOS>ATOM
      1 C          -3.486     0.421    -0.425  C    
      2 C          -4.145    -0.734    -0.887  C    
      3 C          -4.439    -1.780     0.007  C    
      4 C          -4.081    -1.661     1.363  C    
      5 C          -3.430    -0.501     1.822  C    
      6 C          -3.108     0.558     0.934  C    
      7 C          -2.433     1.814     1.395  C    
      8 C          -3.468     2.904     1.825  C    
      9 C          -4.185     2.722     3.071  C    
     10 O          -4.965     1.816     3.315  O    
     11 N          -3.956     3.719     3.890  N    
     12 C          -3.142     4.570     3.318  C    
     13 O          -2.756     5.619     3.808  O    
     14 N          -2.839     4.144     2.118  N    
     15 C          -1.317     1.565     2.347  C    
     16 O          -1.473     1.663     3.688  O    
     17 Cl         -5.230    -3.169    -0.546  Cl   
     18 O          -0.171     0.997     1.905  O    
     19 H          -3.290     1.171    -1.093  H    
     20 H          -4.412    -0.804    -1.873  H    
     21 H          -4.299    -2.416     2.021  H    
     22 H          -3.189    -0.434     2.814  H    
     23 H          -1.928     2.252     0.527  H    
     24 H          -4.189     3.072     1.017  H    
     25 H          -4.351     3.825     4.769  H    
     26 H          -2.275     4.626     1.490  H    
@<TRIPOS>BOND
     1    1    6 ar
     2    1    2 ar
     3    2    3 ar
     4    3    4 ar
     5    3   17 1
     6    4    5 ar
     7    5    6 ar
     8    6    7 1
     9    7    8 1
    10    7   15 1
    11    8   14 1
    12    8    9 1
    13    9   10 2
    14    9   11 1
    15   11   12 1
    16   12   13 2
    17   12   14 1
    18   15   16 2
    19   15   18 1
    20    1   19 1
    21    2   20 1
    22    4   21 1
    23    5   22 1
    24    7   23 1
    25    8   24 1
    26   11   25 1
    27   14   26 1
@<TRIPOS>MOLECULE
ZINC00396676
 29 30 0 0 0
SMALL
NO_CHARGES


@<TRIPOS>ATOM
      1 C           3.774    -6.664     4.397  C    
      2 C           3.621    -6.514     2.942  C    
      3 C           3.494    -5.333     2.226  C    
      4 C           3.368    -5.697     0.889  C    
      5 N           3.443    -7.049     0.854  N    
      6 N           3.588    -7.526     2.056  N    
      7 C           3.373    -7.871    -0.312  C    
      8 N           3.239    -4.909    -0.209  N    
      9 C           3.159    -3.542    -0.260  C    
     10 C           2.255    -2.873     0.603  C    
     11 C           2.126    -1.476     0.572  C    
     12 C           2.882    -0.726    -0.341  C    
     13 C           3.758    -1.375    -1.226  C    
     14 C           3.913    -2.787    -1.213  C    
     15 C           4.831    -3.378    -2.133  C    
     16 O           4.884    -4.711    -2.377  O    
     17 O           5.686    -2.629    -2.867  O    
     18 H           2.973    -7.295     4.785  H    
     19 H           3.732    -5.697     4.898  H    
     20 H           4.735    -7.131     4.614  H    
     21 H           3.510    -4.390     2.618  H    
     22 H           2.416    -7.715    -0.816  H    
     23 H           3.458    -8.929    -0.056  H    
     24 H           4.186    -7.615    -0.996  H    
     25 H           3.274    -5.368    -1.061  H    
     26 H           1.677    -3.401     1.259  H    
     27 H           1.472    -1.009     1.203  H    
     28 H           2.780     0.291    -0.371  H    
     29 H           4.284    -0.794    -1.886  H    
@<TRIPOS>BOND
     1    1    2 1
     2    2    6 2
     3    2    3 1
     4    3    4 2
     5    4    5 1
     6    4    8 1
     7    5    6 1
     8    5    7 1
     9    8    9 1
    10    9   14 ar
    11    9   10 ar
    12   10   11 ar
    13   11   12 ar
    14   12   13 ar
    15   13   14 ar
    16   14   15 1
    17   15   16 2
    18   15   17 1
    19    1   18 1
    20    1   19 1
    21    1   20 1
    22    3   21 1
    23    7   22 1
    24    7   23 1
    25    7   24 1
    26    8   25 1
    27   10   26 1
    28   11   27 1
    29   12   28 1
    30   13   29 1
@<TRIPOS>MOLECULE
ZINC00408531
 37 39 0 0 0
SMALL
NO_CHARGES


@<TRIPOS>ATOM
      1 C           0.118    -8.729    -3.923  C    
      2 C           0.917    -7.610    -3.371  C    
      3 C           2.249    -7.376    -3.786  C    
      4 C           2.982    -6.300    -3.252  C    
      5 C           2.424    -5.446    -2.273  C    
      6 C           1.091    -5.691    -1.860  C    
      7 C           0.345    -6.752    -2.406  C    
      8 N           3.160    -4.409    -1.726  N    
      9 C           4.394    -4.511    -1.260  C    
     10 O           5.050    -5.540    -1.198  O    
     11 C           4.908    -3.269    -0.753  C    
     12 C           3.716    -2.306    -0.933  C    
     13 C           2.741    -3.163    -1.571  C    
     14 O           1.651    -2.742    -1.933  O    
     15 N           4.059    -1.172    -1.742  N    
     16 C           3.395     0.010    -1.848  C    
     17 C           2.210     0.333    -1.138  C    
     18 C           1.593     1.588    -1.296  C    
     19 C           2.152     2.541    -2.163  C    
     20 C           3.323     2.237    -2.879  C    
     21 C           3.938     0.980    -2.721  C    
     22 H          -0.274    -9.344    -3.111  H    
     23 H           0.703    -9.376    -4.579  H    
     24 H          -0.719    -8.332    -4.500  H    
     25 H           2.688    -7.980    -4.483  H    
     26 H           3.933    -6.137    -3.588  H    
     27 H           0.661    -5.107    -1.142  H    
     28 H          -0.616    -6.901    -2.087  H    
     29 H           5.176    -3.374     0.302  H    
     30 H           5.791    -2.966    -1.323  H    
     31 H           3.355    -1.992     0.051  H    
     32 H           4.875    -1.253    -2.263  H    
     33 H           1.779    -0.336    -0.496  H    
     34 H           0.736     1.809    -0.781  H    
     35 H           1.708     3.455    -2.272  H    
     36 H           3.731     2.931    -3.511  H    
     37 H           4.790     0.779    -3.252  H    
@<TRIPOS>BOND
     1    1    2 1
     2    2    7 ar
     3    2    3 ar
     4    3    4 ar
     5    4    5 ar
     6    5    6 ar
     7    5    8 1
     8    6    7 ar
     9    8   13 1
    10    8    9 1
    11    9   10 2
    12    9   11 1
    13   11   12 1
    14   12   13 1
    15   12   15 1
    16   13   14 2
    17   15   16 1
    18   16   21 ar
    19   16   17 ar
    20   17   18 ar
    21   18   19 ar
    22   19   20 ar
    23   20   21 ar
    24    1   22 1
    25    1   23 1
    26    1   24 1
    27    3   25 1
    28    4   26 1
    29    6   27 1
    30    7   28 1
    31   11   29 1
    32   11   30 1
    33   12   31 1
    34   15   32 1
    35   17   33 1
    36   18   34 1
    37   19   35 1
    38   20   36 1
    39   21   37 1
@<TRIPOS>MOLECULE
ZINC00418068
 32 33 0 0 0
SMALL
NO_CHARGES


@<TRIPOS>ATOM
      1 C           3.887   -11.989     1.937  C    
      2 C           3.799   -10.755     1.122  C    
      3 C           4.704   -10.499     0.067  C    
      4 C           4.605    -9.332    -0.724  C    
      5 C           3.578    -8.400    -0.435  C    
      6 C           2.669    -8.636     0.628  C    
      7 C           2.783    -9.814     1.394  C    
      8 C           1.670    -7.674     0.889  C    
      9 C           1.567    -6.493     0.116  C    
     10 C           2.502    -6.304    -0.937  C    
     11 N           3.440    -7.260    -1.160  N    
     12 S           2.477    -4.929    -2.020  S    
     13 C           4.247    -4.615    -2.200  C    
     14 C           4.456    -3.413    -3.021  C    
     15 O           5.111    -2.339    -2.525  O    
     16 C           0.487    -5.536     0.463  C    
     17 C           5.565    -9.091    -1.834  C    
     18 O           4.054    -3.388    -4.312  O    
     19 H           4.006   -11.730     2.989  H    
     20 H           4.732   -12.615     1.643  H    
     21 H           2.974   -12.572     1.820  H    
     22 H           5.440   -11.181    -0.134  H    
     23 H           2.120    -9.995     2.154  H    
     24 H           1.008    -7.834     1.654  H    
     25 H           4.692    -4.479    -1.213  H    
     26 H           4.727    -5.461    -2.690  H    
     27 H          -0.483    -6.021     0.355  H    
     28 H           0.486    -4.649    -0.161  H    
     29 H           0.601    -5.213     1.497  H    
     30 H           6.094    -8.146    -1.666  H    
     31 H           5.024    -9.033    -2.784  H    
     32 H           6.308    -9.884    -1.916  H    
@<TRIPOS>BOND
     1    1    2 1
     2    2    7 ar
     3    2    3 ar
     4    3    4 ar
     5    4    5 ar
     6    4   17 1
     7    5   11 ar
     8    5    6 ar
     9    6    7 ar
    10    6    8 ar
    11    8    9 ar
    12    9   10 ar
    13    9   16 1
    14   10   11 ar
    15   10   12 1
    16   12   13 1
    17   13   14 1
    18   14   15 2
    19   14   18 1
    20    1   19 1
    21    1   20 1
    22    1   21 1
    23    3   22 1
    24    7   23 1
    25    8   24 1
    26   13   25 1
    27   13   26 1
    28   16   27 1
    29   16   28 1
    30   16   29 1
    31   17   30 1
    32   17   31 1
    33   17   32 1
@<TRIPOS>MOLECULE
ZINC00429339
 38 41 0 0 0
SMALL
NO_CHARGES


@<TRIPOS>ATOM
      1 C           0.186     6.393     1.603  C    
      2 N           0.109     4.993     1.285  N    
      3 C           0.484     3.980     2.126  C    
      4 C           0.423     2.784     1.415  C    
      5 C          -0.035     3.091     0.150  C    
      6 C          -0.252     4.472     0.073  C    
      7 C          -0.755     5.029    -1.164  C    
      8 C          -1.080     6.390    -1.390  C    
      9 C          -1.575     6.831    -2.632  C    
     10 C          -1.766     5.920    -3.680  C    
     11 C          -1.466     4.563    -3.487  C    
     12 C          -0.969     4.123    -2.246  C    
     13 O          -0.711     2.782    -2.096  O    
     14 C          -0.262     2.230    -0.937  C    
     15 O          -0.034     0.900    -0.857  O    
     16 C           0.838     4.018     3.469  C    
     17 O           1.681     3.218     3.868  O    
     18 N           0.190     4.833     4.289  N    
     19 C           0.312     5.062     5.633  C    
     20 C           1.370     4.614     6.465  C    
     21 C           1.391     4.927     7.837  C    
     22 C           0.363     5.704     8.399  C    
     23 C          -0.686     6.167     7.587  C    
     24 C          -0.709     5.847     6.218  C    
     25 F           0.386     6.000     9.669  F    
     26 H           0.776     6.913     0.847  H    
     27 H           0.677     6.595     2.554  H    
     28 H          -0.817     6.816     1.652  H    
     29 H           0.639     1.847     1.765  H    
     30 H          -0.983     7.089    -0.663  H    
     31 H          -1.799     7.819    -2.772  H    
     32 H          -2.135     6.239    -4.579  H    
     33 H          -1.621     3.895    -4.244  H    
     34 H          -0.515     5.343     3.864  H    
     35 H           2.145     4.071     6.090  H    
     36 H           2.162     4.595     8.420  H    
     37 H          -1.436     6.735     7.988  H    
     38 H          -1.483     6.195     5.645  H    
@<TRIPOS>BOND
     1    1    2 1
     2    2    6 1
     3    2    3 1
     4    3    4 2
     5    3   16 1
     6    4    5 1
     7    5   14 1
     8    5    6 2
     9    6    7 1
    10    7   12 ar
    11    7    8 ar
    12    8    9 ar
    13    9   10 ar
    14   10   11 ar
    15   11   12 ar
    16   12   13 1
    17   13   14 1
    18   14   15 2
    19   16   17 2
    20   16   18 1
    21   18   19 1
    22   19   24 ar
    23   19   20 ar
    24   20   21 ar
    25   21   22 ar
    26   22   23 ar
    27   22   25 1
    28   23   24 ar
    29    1   26 1
    30    1   27 1
    31    1   28 1
    32    4   29 1
    33    8   30 1
    34    9   31 1
    35   10   32 1
    36   11   33 1
    37   18   34 1
    38   20   35 1
    39   21   36 1
    40   23   37 1
    41   24   38 1
@<TRIPOS>MOLECULE
ZINC00429350
 33 34 0 0 0
SMALL
NO_CHARGES


@<TRIPOS>ATOM
      1 C           6.587    -6.900    -0.191  C    
      2 C           5.293    -7.513     0.148  C    
      3 C           4.419    -7.247     1.201  C    
      4 C           3.347    -8.126     1.029  C    
      5 N           3.611    -8.853    -0.084  N    
      6 N           4.750    -8.492    -0.591  N    
      7 C           2.812    -9.884    -0.668  C    
      8 C           2.160    -8.229     1.903  C    
      9 S           4.676    -6.059     2.451  S    
     10 O           3.485    -6.020     3.505  O    
     11 O           6.035    -6.478     3.165  O    
     12 N           4.845    -4.543     1.731  N    
     13 C           5.205    -3.384     2.347  C    
     14 C           5.596    -3.282     3.709  C    
     15 C           5.951    -2.038     4.259  C    
     16 C           5.919    -0.878     3.465  C    
     17 C           5.521    -0.961     2.115  C    
     18 C           5.171    -2.208     1.563  C    
     19 Br          6.374     0.767     4.207  Br   
     20 H           7.361    -7.669    -0.201  H    
     21 H           6.874    -6.128     0.523  H    
     22 H           6.520    -6.450    -1.183  H    
     23 H           2.674   -10.699     0.045  H    
     24 H           3.287   -10.288    -1.567  H    
     25 H           1.836    -9.481    -0.948  H    
     26 H           2.462    -8.482     2.919  H    
     27 H           1.467    -8.995     1.554  H    
     28 H           1.633    -7.272     1.914  H    
     29 H           4.617    -4.485     0.792  H    
     30 H           5.622    -4.105     4.312  H    
     31 H           6.233    -1.979     5.241  H    
     32 H           5.496    -0.121     1.534  H    
     33 H           4.889    -2.255     0.578  H    
@<TRIPOS>BOND
     1    1    2 1
     2    2    6 2
     3    2    3 1
     4    3    4 2
     5    3    9 1
     6    4    5 1
     7    4    8 1
     8    5    6 1
     9    5    7 1
    10    9   10 2
    11    9   11 2
    12    9   12 1
    13   12   13 1
    14   13   18 ar
    15   13   14 ar
    16   14   15 ar
    17   15   16 ar
    18   16   17 ar
    19   16   19 1
    20   17   18 ar
    21    1   20 1
    22    1   21 1
    23    1   22 1
    24    7   23 1
    25    7   24 1
    26    7   25 1
    27    8   26 1
    28    8   27 1
    29    8   28 1
    30   12   29 1
    31   14   30 1
    32   15   31 1
    33   17   32 1
    34   18   33 1
@<TRIPOS>MOLECULE
ZINC00435639
 37 38 0 0 0
SMALL
NO_CHARGES


@<TRIPOS>ATOM
      1 C          -0.911     7.783    -1.749  C    
      2 C          -1.453     6.368    -1.420  C    
      3 C          -3.013     6.355    -1.368  C    
      4 C          -3.554     4.913    -1.165  C    
      5 C          -2.858     4.195     0.021  C    
      6 C          -1.314     4.317    -0.081  C    
      7 N          -0.930     5.705    -0.231  N    
      8 S          -0.568     6.562     1.194  S    
      9 O           0.382     7.805     0.900  O    
     10 O          -1.898     7.145     1.843  O    
     11 C           0.368     5.657     2.362  C    
     12 C          -0.081     5.561     3.698  C    
     13 C           0.636     4.804     4.642  C    
     14 C           1.807     4.126     4.258  C    
     15 C           2.263     4.218     2.930  C    
     16 C           1.564     4.998     1.983  C    
     17 O           2.001     5.034     0.684  O    
     18 C           3.131     5.897     0.466  C    
     19 F           2.464     3.410     5.129  F    
     20 H          -1.254     8.515    -1.017  H    
     21 H          -1.259     8.101    -2.734  H    
     22 H           0.178     7.770    -1.765  H    
     23 H          -1.157     5.760    -2.283  H    
     24 H          -3.359     6.986    -0.545  H    
     25 H          -3.425     6.758    -2.298  H    
     26 H          -4.633     4.948    -0.988  H    
     27 H          -3.385     4.336    -2.080  H    
     28 H          -3.194     4.640     0.962  H    
     29 H          -3.143     3.138     0.028  H    
     30 H          -0.864     3.844     0.794  H    
     31 H          -0.966     3.749    -0.949  H    
     32 H          -0.936     6.035     3.997  H    
     33 H           0.298     4.740     5.605  H    
     34 H           3.107     3.712     2.649  H    
     35 H           2.932     6.919     0.799  H    
     36 H           3.338     5.922    -0.604  H    
     37 H           4.019     5.519     0.977  H    
@<TRIPOS>BOND
     1    1    2 1
     2    2    7 1
     3    2    3 1
     4    3    4 1
     5    4    5 1
     6    5    6 1
     7    6    7 1
     8    7    8 1
     9    8    9 2
    10    8   10 2
    11    8   11 1
    12   11   16 ar
    13   11   12 ar
    14   12   13 ar
    15   13   14 ar
    16   14   15 ar
    17   14   19 1
    18   15   16 ar
    19   16   17 1
    20   17   18 1
    21    1   20 1
    22    1   21 1
    23    1   22 1
    24    2   23 1
    25    3   24 1
    26    3   25 1
    27    4   26 1
    28    4   27 1
    29    5   28 1
    30    5   29 1
    31    6   30 1
    32    6   31 1
    33   12   32 1
    34   13   33 1
    35   15   34 1
    36   18   35 1
    37   18   36 1
    38   18   37 1
@<TRIPOS>MOLECULE
ZINC00454887
 41 43 0 0 0
SMALL
NO_CHARGES


@<TRIPOS>ATOM
      1 C          -3.898     6.022    -1.754  C    
      2 C          -2.506     5.599    -1.428  C    
      3 C          -1.826     4.753    -2.342  C    
      4 C          -0.519     4.312    -2.085  C    
      5 C           0.135     4.714    -0.911  C    
      6 C          -0.510     5.563     0.017  C    
      7 C          -1.844     6.010    -0.229  C    
      8 C          -2.550     6.888     0.752  C    
      9 N           0.204     5.913     1.147  N    
     10 C           0.211     5.115     2.241  C    
     11 O          -0.567     4.163     2.283  O    
     12 C           0.964     5.434     3.371  C    
     13 C           1.182     4.593     4.414  C    
     14 C           1.010     3.210     4.453  C    
     15 C           1.467     2.373     3.404  C    
     16 C           1.320     0.975     3.482  C    
     17 C           0.728     0.388     4.618  C    
     18 C           0.290     1.208     5.675  C    
     19 C           0.441     2.606     5.599  C    
     20 O           0.580    -0.958     4.709  O    
     21 C           1.515     6.707     3.369  C    
     22 O           2.112     7.190     4.323  O    
     23 N           1.492     7.463     2.278  N    
     24 C           0.875     7.078     1.169  C    
     25 O           0.914     7.857     0.223  O    
     26 H          -4.579     5.692    -0.968  H    
     27 H          -4.257     5.607    -2.699  H    
     28 H          -3.939     7.109    -1.832  H    
     29 H          -2.284     4.444    -3.206  H    
     30 H          -0.043     3.696    -2.750  H    
     31 H           1.092     4.388    -0.738  H    
     32 H          -2.796     7.841     0.279  H    
     33 H          -1.961     7.110     1.641  H    
     34 H          -3.471     6.401     1.087  H    
     35 H           1.532     4.984     5.260  H    
     36 H           1.922     2.770     2.576  H    
     37 H           1.651     0.387     2.713  H    
     38 H          -0.135     0.789     6.506  H    
     39 H           0.114     3.180     6.383  H    
     40 H           1.033    -1.332     3.921  H    
     41 H           1.932     8.328     2.294  H    
@<TRIPOS>BOND
     1    1    2 1
     2    2    7 ar
     3    2    3 ar
     4    3    4 ar
     5    4    5 ar
     6    5    6 ar
     7    6    7 ar
     8    6    9 1
     9    7    8 1
    10    9   24 1
    11    9   10 1
    12   10   11 2
    13   10   12 1
    14   12   13 2
    15   12   21 1
    16   13   14 1
    17   14   19 ar
    18   14   15 ar
    19   15   16 ar
    20   16   17 ar
    21   17   18 ar
    22   17   20 1
    23   18   19 ar
    24   21   22 2
    25   21   23 1
    26   23   24 1
    27   24   25 2
    28    1   26 1
    29    1   27 1
    30    1   28 1
    31    3   29 1
    32    4   30 1
    33    5   31 1
    34    8   32 1
    35    8   33 1
    36    8   34 1
    37   13   35 1
    38   15   36 1
    39   16   37 1
    40   18   38 1
    41   19   39 1
    42   20   40 1
    43   23   41 1
@<TRIPOS>MOLECULE
ZINC00456018
 39 42 0 0 0
SMALL
NO_CHARGES


@<TRIPOS>ATOM
      1 C           8.091    -8.038    -0.871  C    
      2 C           6.673    -8.201    -0.474  C    
      3 C           5.746    -9.152    -0.988  C    
      4 C           6.033   -10.123    -1.981  C    
      5 C           5.043   -11.021    -2.423  C    
      6 C           3.747   -10.969    -1.882  C    
      7 C           3.437   -10.016    -0.898  C    
      8 C           4.425    -9.116    -0.454  C    
      9 N           4.098    -8.210     0.500  N    
     10 C           4.993    -7.313     0.979  C    
     11 N           6.252    -7.330     0.483  N    
     12 S           4.617    -6.138     2.207  S    
     13 C           2.883    -6.525     2.564  C    
     14 C           2.374    -5.653     3.663  C    
     15 C           1.462    -4.623     3.323  C    
     16 C           0.948    -3.754     4.296  C    
     17 C           1.331    -3.896     5.636  C    
     18 C           2.231    -4.913     6.016  C    
     19 C           2.762    -5.804     5.031  C    
     20 C           3.658    -6.814     5.471  C    
     21 C           4.022    -6.935     6.823  C    
     22 C           3.492    -6.052     7.776  C    
     23 C           2.602    -5.044     7.374  C    
     24 H           8.243    -7.030    -1.261  H    
     25 H           8.419    -8.740    -1.631  H    
     26 H           8.729    -8.172     0.004  H    
     27 H           6.958   -10.198    -2.402  H    
     28 H           5.266   -11.714    -3.141  H    
     29 H           3.031   -11.623    -2.205  H    
     30 H           2.492    -9.984    -0.508  H    
     31 H           2.316    -6.381     1.641  H    
     32 H           2.775    -7.573     2.846  H    
     33 H           1.166    -4.487     2.354  H    
     34 H           0.294    -3.014     4.027  H    
     35 H           0.944    -3.251     6.330  H    
     36 H           4.065    -7.483     4.816  H    
     37 H           4.667    -7.671     7.116  H    
     38 H           3.757    -6.141     8.759  H    
     39 H           2.225    -4.409     8.084  H    
@<TRIPOS>BOND
     1    1    2 1
     2    2   11 ar
     3    2    3 ar
     4    3    8 ar
     5    3    4 ar
     6    4    5 ar
     7    5    6 ar
     8    6    7 ar
     9    7    8 ar
    10    8    9 ar
    11    9   10 ar
    12   10   11 ar
    13   10   12 1
    14   12   13 1
    15   13   14 1
    16   14   19 ar
    17   14   15 ar
    18   15   16 ar
    19   16   17 ar
    20   17   18 ar
    21   18   23 ar
    22   18   19 ar
    23   19   20 ar
    24   20   21 ar
    25   21   22 ar
    26   22   23 ar
    27    1   24 1
    28    1   25 1
    29    1   26 1
    30    4   27 1
    31    5   28 1
    32    6   29 1
    33    7   30 1
    34   13   31 1
    35   13   32 1
    36   15   33 1
    37   16   34 1
    38   17   35 1
    39   20   36 1
    40   21   37 1
    41   22   38 1
    42   23   39 1
@<TRIPOS>MOLECULE
ZINC00464513
 35 36 0 0 0
SMALL
NO_CHARGES


@<TRIPOS>ATOM
      1 C           4.784    -7.598    -1.552  C    
      2 C           5.231    -8.143    -0.240  C    
      3 C           5.445    -9.540    -0.136  C    
      4 C           5.828   -10.129     1.079  C    
      5 C           5.999    -9.330     2.218  C    
      6 C           5.791    -7.943     2.137  C    
      7 C           5.409    -7.320     0.918  C    
      8 C           5.226    -5.933     0.906  C    
      9 O           5.686    -5.285    -0.026  O    
     10 N           4.662    -5.320     1.944  N    
     11 C           4.424    -3.982     2.153  C    
     12 C           4.015    -3.148     1.089  C    
     13 C           3.743    -1.793     1.304  C    
     14 C           3.849    -1.241     2.589  C    
     15 C           4.225    -2.055     3.693  C    
     16 C           4.515    -3.442     3.471  C    
     17 C           4.934    -4.368     4.572  C    
     18 C           4.304    -1.466     5.062  C    
     19 Br          3.456     0.582     2.703  Br   
     20 H           3.866    -7.022    -1.422  H    
     21 H           4.579    -8.380    -2.286  H    
     22 H           5.558    -6.953    -1.971  H    
     23 H           5.322   -10.149    -0.948  H    
     24 H           5.980   -11.138     1.136  H    
     25 H           6.282    -9.756     3.103  H    
     26 H           5.947    -7.389     2.984  H    
     27 H           4.438    -5.898     2.689  H    
     28 H           3.885    -3.524     0.148  H    
     29 H           3.454    -1.210     0.515  H    
     30 H           4.202    -5.172     4.674  H    
     31 H           5.031    -3.898     5.548  H    
     32 H           5.906    -4.803     4.331  H    
     33 H           5.323    -1.559     5.441  H    
     34 H           3.621    -1.996     5.728  H    
     35 H           4.042    -0.412     5.112  H    
@<TRIPOS>BOND
     1    1    2 1
     2    2    7 ar
     3    2    3 ar
     4    3    4 ar
     5    4    5 ar
     6    5    6 ar
     7    6    7 ar
     8    7    8 1
     9    8    9 2
    10    8   10 1
    11   10   11 1
    12   11   16 ar
    13   11   12 ar
    14   12   13 ar
    15   13   14 ar
    16   14   15 ar
    17   14   19 1
    18   15   16 ar
    19   15   18 1
    20   16   17 1
    21    1   20 1
    22    1   21 1
    23    1   22 1
    24    3   23 1
    25    4   24 1
    26    5   25 1
    27    6   26 1
    28   10   27 1
    29   12   28 1
    30   13   29 1
    31   17   30 1
    32   17   31 1
    33   17   32 1
    34   18   33 1
    35   18   34 1
    36   18   35 1
@<TRIPOS>MOLECULE
ZINC00470538
 27 28 0 0 0
SMALL
NO_CHARGES


@<TRIPOS>ATOM
      1 C           4.590    -8.961    -1.336  C    
      2 C           3.616    -8.070    -1.756  C    
      3 C           2.986    -7.580    -0.613  C    
      4 O           3.552    -8.158     0.475  O    
      5 C           4.527    -8.995     0.050  C    
      6 C           1.882    -6.607    -0.554  C    
      7 C           1.271    -4.425     0.575  C    
      8 C           0.720    -3.665    -0.681  C    
      9 C           0.361    -2.279    -0.433  C    
     10 O          -0.250    -1.637    -1.275  O    
     11 N           0.791    -1.654     0.650  N    
     12 N           1.515    -2.231     1.580  N    
     13 C           1.797    -3.524     1.598  C    
     14 O           2.379    -3.962     2.580  O    
     15 N           2.324    -5.411     0.198  N    
     16 H           5.230    -9.490    -1.931  H    
     17 H           3.406    -7.823    -2.724  H    
     18 H           5.124    -9.563     0.653  H    
     19 H           1.577    -6.318    -1.563  H    
     20 H           1.036    -7.086    -0.057  H    
     21 H           0.442    -4.962     1.051  H    
     22 H           1.471    -3.664    -1.476  H    
     23 H          -0.158    -4.200    -1.056  H    
     24 H           0.574    -0.715     0.759  H    
     25 H           1.836    -1.681     2.312  H    
     26 H           2.768    -5.738     1.058  H    
     27 H           3.033    -4.926    -0.358  H    
@<TRIPOS>BOND
     1    1    5 2
     2    1    2 1
     3    2    3 2
     4    3    4 1
     5    3    6 1
     6    4    5 1
     7    6   15 1
     8    7   13 1
     9    7    8 1
    10    7   15 1
    11    8    9 1
    12    9   10 2
    13    9   11 1
    14   11   12 1
    15   12   13 1
    16   13   14 2
    17    1   16 1
    18    2   17 1
    19    5   18 1
    20    6   19 1
    21    6   20 1
    22    7   21 1
    23    8   22 1
    24    8   23 1
    25   11   24 1
    26   12   25 1
    27   15   26 1
    28   15   27 1
@<TRIPOS>MOLECULE
ZINC00475006
 29 30 0 0 0
SMALL
NO_CHARGES


@<TRIPOS>ATOM
      1 C           4.204    -8.367    -2.273  C    
      2 C           5.336    -7.366    -1.930  C    
      3 C           5.120    -6.697    -0.639  C    
      4 C           5.643    -7.189     0.513  C    
      5 N           5.501    -6.559     1.647  N    
      6 C           4.878    -5.418     1.752  C    
      7 S           5.016    -4.661     3.272  S    
      8 N           4.268    -4.879     0.650  N    
      9 C           4.380    -5.527    -0.535  C    
     10 O           3.803    -5.100    -1.532  O    
     11 C           3.542    -3.709     0.751  C    
     12 C           2.343    -3.671     1.499  C    
     13 C           1.599    -2.481     1.598  C    
     14 C           2.046    -1.319     0.944  C    
     15 C           3.231    -1.346     0.187  C    
     16 C           3.975    -2.535     0.090  C    
     17 O           6.335    -8.326     0.587  O    
     18 H           4.121    -9.132    -1.496  H    
     19 H           4.425    -8.859    -3.222  H    
     20 H           3.250    -7.849    -2.365  H    
     21 H           6.292    -7.898    -1.941  H    
     22 H           5.408    -6.628    -2.735  H    
     23 H           5.882    -6.930     2.416  H    
     24 H           2.007    -4.511     1.979  H    
     25 H           0.735    -2.464     2.143  H    
     26 H           1.504    -0.455     1.014  H    
     27 H           3.552    -0.503    -0.293  H    
     28 H           4.837    -2.542    -0.461  H    
     29 H           6.085    -8.858    -0.198  H    
@<TRIPOS>BOND
     1    1    2 1
     2    2    3 1
     3    3    9 1
     4    3    4 2
     5    4    5 1
     6    4   17 1
     7    5    6 1
     8    6    7 2
     9    6    8 1
    10    8    9 1
    11    8   11 1
    12    9   10 2
    13   11   16 ar
    14   11   12 ar
    15   12   13 ar
    16   13   14 ar
    17   14   15 ar
    18   15   16 ar
    19    1   18 1
    20    1   19 1
    21    1   20 1
    22    2   21 1
    23    2   22 1
    24    5   23 1
    25   12   24 1
    26   13   25 1
    27   14   26 1
    28   15   27 1
    29   16   28 1
    30   17   29 1
@<TRIPOS>MOLECULE
ZINC00482420
 47 50 0 0 0
SMALL
NO_CHARGES


@<TRIPOS>ATOM
      1 C          -1.542     5.445     0.102  C    
      2 C          -0.428     6.329    -0.328  C    
      3 C          -0.649     7.299    -1.333  C    
      4 C           0.403     8.118    -1.783  C    
      5 C           1.691     7.963    -1.246  C    
      6 C           1.947     6.997    -0.247  C    
      7 C           0.868     6.201     0.241  C    
      8 O           1.060     5.258     1.228  O    
      9 C           1.179     5.721     2.524  C    
     10 C           0.344     6.704     3.099  C    
     11 C           0.511     7.088     4.443  C    
     12 C           1.514     6.502     5.252  C    
     13 C           2.340     5.512     4.669  C    
     14 C           2.164     5.118     3.328  C    
     15 N           1.669     6.886     6.577  N    
     16 C           1.688     8.136     7.013  C    
     17 O           1.647     9.133     6.301  O    
     18 C           1.858     8.248     8.441  C    
     19 C           0.678     8.999     9.147  C    
     20 C          -0.491     8.151     9.333  C    
     21 C          -0.354     6.872     9.723  C    
     22 C           0.967     6.308     9.959  C    
     23 C           1.999     6.750     8.868  C    
     24 C           1.838     6.068     7.605  C    
     25 O           1.881     4.845     7.539  O    
     26 C           3.344     6.856     0.239  C    
     27 H          -1.277     4.402    -0.074  H    
     28 H          -2.468     5.652    -0.437  H    
     29 H          -1.738     5.580     1.168  H    
     30 H          -1.575     7.415    -1.750  H    
     31 H           0.229     8.818    -2.504  H    
     32 H           2.447     8.556    -1.601  H    
     33 H          -0.394     7.146     2.552  H    
     34 H          -0.121     7.789     4.833  H    
     35 H           3.088     5.075     5.211  H    
     36 H           2.767     4.392     2.938  H    
     37 H           2.794     8.783     8.634  H    
     38 H           1.020     9.312    10.135  H    
     39 H           0.409     9.907     8.598  H    
     40 H          -1.390     8.502     9.104  H    
     41 H          -1.154     6.290     9.787  H    
     42 H           1.316     6.676    10.927  H    
     43 H           0.912     5.219    10.028  H    
     44 H           3.014     6.557     9.236  H    
     45 H           4.009     6.652    -0.603  H    
     46 H           3.466     6.044     0.952  H    
     47 H           3.657     7.786     0.717  H    
@<TRIPOS>BOND
     1    1    2 1
     2    2    7 ar
     3    2    3 ar
     4    3    4 ar
     5    4    5 ar
     6    5    6 ar
     7    6    7 ar
     8    6   26 1
     9    7    8 1
    10    8    9 1
    11    9   14 ar
    12    9   10 ar
    13   10   11 ar
    14   11   12 ar
    15   12   13 ar
    16   12   15 1
    17   13   14 ar
    18   15   24 1
    19   15   16 1
    20   16   17 2
    21   16   18 1
    22   18   23 1
    23   18   19 1
    24   19   20 1
    25   20   21 2
    26   21   22 1
    27   22   23 1
    28   23   24 1
    29   24   25 2
    30    1   27 1
    31    1   28 1
    32    1   29 1
    33    3   30 1
    34    4   31 1
    35    5   32 1
    36   10   33 1
    37   11   34 1
    38   13   35 1
    39   14   36 1
    40   18   37 1
    41   19   38 1
    42   19   39 1
    43   20   40 1
    44   21   41 1
    45   22   42 1
    46   22   43 1
    47   23   44 1
    48   26   45 1
    49   26   46 1
    50   26   47 1
@<TRIPOS>MOLECULE
ZINC00496656
 31 32 0 0 0
SMALL
NO_CHARGES


@<TRIPOS>ATOM
      1 C           2.067    -9.610     1.815  C    
      2 C           2.969    -8.435     1.746  C    
      3 C           4.361    -8.562     1.939  C    
      4 C           5.211    -7.437     1.876  C    
      5 C           4.643    -6.167     1.624  C    
      6 C           3.247    -5.993     1.432  C    
      7 C           2.431    -7.155     1.488  C    
      8 C           2.688    -4.727     1.189  C    
      9 O           1.544    -4.656     0.742  O    
     10 N           3.349    -3.611     1.490  N    
     11 C           3.017    -2.289     1.339  C    
     12 C           2.096    -1.788     0.380  C    
     13 C           1.836    -0.411     0.273  C    
     14 C           2.514     0.479     1.125  C    
     15 N           3.412    -0.010     2.021  N    
     16 C           3.686    -1.334     2.150  C    
     17 Cl          4.831    -1.757     3.336  Cl   
     18 C           6.670    -7.614     2.071  C    
     19 H           1.325    -9.456     2.601  H    
     20 H           2.607   -10.532     2.034  H    
     21 H           1.555    -9.736     0.858  H    
     22 H           4.768    -9.483     2.126  H    
     23 H           5.270    -5.361     1.564  H    
     24 H           1.418    -7.072     1.356  H    
     25 H           4.191    -3.753     1.944  H    
     26 H           1.620    -2.412    -0.274  H    
     27 H           1.175    -0.058    -0.423  H    
     28 H           2.346     1.485     1.067  H    
     29 H           6.860    -8.028     3.063  H    
     30 H           7.214    -6.671     1.986  H    
     31 H           7.059    -8.301     1.316  H    
@<TRIPOS>BOND
     1    1    2 1
     2    2    7 ar
     3    2    3 ar
     4    3    4 ar
     5    4    5 ar
     6    4   18 1
     7    5    6 ar
     8    6    7 ar
     9    6    8 1
    10    8    9 2
    11    8   10 1
    12   10   11 1
    13   11   16 ar
    14   11   12 ar
    15   12   13 ar
    16   13   14 ar
    17   14   15 ar
    18   15   16 ar
    19   16   17 1
    20    1   19 1
    21    1   20 1
    22    1   21 1
    23    3   22 1
    24    5   23 1
    25    7   24 1
    26   10   25 1
    27   12   26 1
    28   13   27 1
    29   14   28 1
    30   18   29 1
    31   18   30 1
    32   18   31 1
@<TRIPOS>MOLECULE
ZINC00555226
 39 41 0 0 0
SMALL
NO_CHARGES


@<TRIPOS>ATOM
      1 C          -5.763     4.757     0.278  C    
      2 C          -5.106     3.472    -0.269  C    
      3 N          -3.684     3.623    -0.378  N    
      4 C          -2.785     3.419     0.613  C    
      5 C          -2.944     3.021     1.958  C    
      6 C          -1.807     2.868     2.780  C    
      7 C          -0.510     3.099     2.263  C    
      8 C          -0.358     3.517     0.921  C    
      9 C          -1.504     3.673     0.119  C    
     10 C          -1.597     4.094    -1.278  C    
     11 C          -3.027     4.020    -1.460  C    
     12 O          -3.549     4.331    -2.519  O    
     13 S           0.874     2.810     3.286  S    
     14 O           0.683     3.609     4.647  O    
     15 O           2.213     3.428     2.687  O    
     16 N           1.099     1.167     3.632  N    
     17 C           1.794     0.317     2.698  C    
     18 C           0.815    -0.759     2.159  C    
     19 O           0.145    -1.436     3.243  O    
     20 C          -0.567    -0.550     4.131  C    
     21 C           0.381     0.533     4.711  C    
     22 H          -5.369     4.996     1.268  H    
     23 H          -6.843     4.620     0.354  H    
     24 H          -5.564     5.598    -0.391  H    
     25 H          -5.355     2.633     0.379  H    
     26 H          -5.541     3.247    -1.242  H    
     27 H          -3.871     2.841     2.347  H    
     28 H          -1.935     2.581     3.756  H    
     29 H           0.570     3.701     0.528  H    
     30 H          -1.237     5.116    -1.412  H    
     31 H          -1.071     3.404    -1.941  H    
     32 H           2.219     0.864     1.852  H    
     33 H           2.620    -0.170     3.222  H    
     34 H           0.083    -0.299     1.489  H    
     35 H           1.374    -1.500     1.587  H    
     36 H          -1.400    -0.079     3.603  H    
     37 H          -0.981    -1.141     4.948  H    
     38 H           1.106     0.063     5.381  H    
     39 H          -0.207     1.234     5.309  H    
@<TRIPOS>BOND
     1    1    2 1
     2    2    3 1
     3    3   11 1
     4    3    4 1
     5    4    9 ar
     6    4    5 ar
     7    5    6 ar
     8    6    7 ar
     9    7    8 ar
    10    7   13 1
    11    8    9 ar
    12    9   10 1
    13   10   11 1
    14   11   12 2
    15   13   14 2
    16   13   15 2
    17   13   16 1
    18   16   21 1
    19   16   17 1
    20   17   18 1
    21   18   19 1
    22   19   20 1
    23   20   21 1
    24    1   22 1
    25    1   23 1
    26    1   24 1
    27    2   25 1
    28    2   26 1
    29    5   27 1
    30    6   28 1
    31    8   29 1
    32   10   30 1
    33   10   31 1
    34   17   32 1
    35   17   33 1
    36   18   34 1
    37   18   35 1
    38   20   36 1
    39   20   37 1
    40   21   38 1
    41   21   39 1
@<TRIPOS>MOLECULE
ZINC00567369
 39 41 0 0 0
SMALL
NO_CHARGES


@<TRIPOS>ATOM
      1 C           4.980    -6.881     4.992  C    
      2 C           5.147    -8.156     5.553  C    
      3 C           5.774    -9.214     4.840  C    
      4 C           6.226    -8.909     3.528  C    
      5 C           6.059    -7.636     2.964  C    
      6 C           5.429    -6.591     3.680  C    
      7 C           5.286    -5.316     3.120  C    
      8 C           4.449    -4.946     2.112  C    
      9 C           3.842    -5.843     1.415  C    
     10 N           3.317    -6.640     0.754  N    
     11 C           4.441    -3.615     1.635  C    
     12 C           4.001    -2.592     2.512  C    
     13 C           3.930    -1.258     2.096  C    
     14 C           4.303    -0.913     0.785  C    
     15 C           4.749    -1.909    -0.103  C    
     16 C           4.813    -3.245     0.312  C    
     17 F           4.236     0.337     0.391  F    
     18 N           5.938   -10.467     5.391  N    
     19 C           5.621   -10.813     6.751  C    
     20 C           6.228   -12.208     6.990  C    
     21 C           6.177   -12.828     5.591  C    
     22 C           6.448   -11.613     4.686  C    
     23 H           4.518    -6.157     5.542  H    
     24 H           4.795    -8.312     6.495  H    
     25 H           6.700    -9.616     2.970  H    
     26 H           6.421    -7.459     2.027  H    
     27 H           5.785    -4.603     3.570  H    
     28 H           3.717    -2.824     3.462  H    
     29 H           3.610    -0.534     2.738  H    
     30 H           5.021    -1.651    -1.051  H    
     31 H           5.150    -3.949    -0.340  H    
     32 H           6.053   -10.100     7.457  H    
     33 H           4.536   -10.851     6.886  H    
     34 H           7.269   -12.124     7.323  H    
     35 H           5.663   -12.793     7.721  H    
     36 H           6.919   -13.621     5.464  H    
     37 H           5.178   -13.236     5.400  H    
     38 H           5.942   -11.749     3.727  H    
     39 H           7.524   -11.504     4.521  H    
@<TRIPOS>BOND
     1    1    6 ar
     2    1    2 ar
     3    2    3 ar
     4    3    4 ar
     5    3   18 1
     6    4    5 ar
     7    5    6 ar
     8    6    7 1
     9    7    8 2
    10    8    9 1
    11    8   11 1
    12    9   10 3
    13   11   16 ar
    14   11   12 ar
    15   12   13 ar
    16   13   14 ar
    17   14   15 ar
    18   14   17 1
    19   15   16 ar
    20   18   22 1
    21   18   19 1
    22   19   20 1
    23   20   21 1
    24   21   22 1
    25    1   23 1
    26    2   24 1
    27    4   25 1
    28    5   26 1
    29    7   27 1
    30   12   28 1
    31   13   29 1
    32   15   30 1
    33   16   31 1
    34   19   32 1
    35   19   33 1
    36   20   34 1
    37   20   35 1
    38   21   36 1
    39   21   37 1
    40   22   38 1
    41   22   39 1
@<TRIPOS>MOLECULE
ZINC00634301
 44 47 0 0 0
SMALL
NO_CHARGES


@<TRIPOS>ATOM
      1 C           1.540     2.630    -7.824  C    
      2 O           2.977     2.657    -7.751  O    
      3 C           3.520     2.496    -6.501  C    
      4 C           3.348     1.300    -5.768  C    
      5 C           4.000     1.118    -4.543  C    
      6 C           4.853     2.119    -4.053  C    
      7 C           5.060     3.329    -4.764  C    
      8 C           4.377     3.507    -6.001  C    
      9 O           4.667     4.570    -6.823  O    
     10 C           3.732     5.658    -6.769  C    
     11 C           6.069     4.331    -4.262  C    
     12 C           5.843     4.672    -2.840  C    
     13 C           6.787     4.357    -1.914  C    
     14 C           6.637     4.682    -0.553  C    
     15 C           7.607     4.386     0.438  C    
     16 C           7.395     4.757     1.781  C    
     17 C           6.213     5.425     2.154  C    
     18 C           5.236     5.719     1.186  C    
     19 C           5.450     5.354    -0.155  C    
     20 O           4.510     5.648    -1.101  O    
     21 C           4.678     5.331    -2.417  C    
     22 O           3.678     5.654    -3.265  O    
     23 O           7.902     3.677    -2.271  O    
     24 C           8.287     3.587    -3.560  C    
     25 C           7.430     3.849    -4.572  C    
     26 C           7.815     3.816    -5.801  C    
     27 N           8.157     3.779    -6.898  N    
     28 N           9.497     3.182    -3.728  N    
     29 H           1.169     1.605    -7.735  H    
     30 H           1.249     3.002    -8.809  H    
     31 H           1.071     3.259    -7.055  H    
     32 H           2.765     0.547    -6.137  H    
     33 H           3.872     0.250    -4.020  H    
     34 H           5.341     1.947    -3.174  H    
     35 H           2.711     5.335    -6.970  H    
     36 H           4.009     6.384    -7.530  H    
     37 H           3.767     6.153    -5.804  H    
     38 H           5.955     5.285    -4.791  H    
     39 H           8.477     3.901     0.194  H    
     40 H           8.103     4.541     2.488  H    
     41 H           6.067     5.699     3.128  H    
     42 H           4.373     6.203     1.454  H    
     43 H           9.828     3.051    -4.589  H    
     44 H          10.031     2.981    -2.991  H    
@<TRIPOS>BOND
     1    1    2 1
     2    2    3 1
     3    3    8 ar
     4    3    4 ar
     5    4    5 ar
     6    5    6 ar
     7    6    7 ar
     8    7    8 ar
     9    7   11 1
    10    8    9 1
    11    9   10 1
    12   11   25 1
    13   11   12 1
    14   12   21 1
    15   12   13 2
    16   13   14 1
    17   13   23 1
    18   14   19 ar
    19   14   15 ar
    20   15   16 ar
    21   16   17 ar
    22   17   18 ar
    23   18   19 ar
    24   19   20 1
    25   20   21 1
    26   21   22 2
    27   23   24 1
    28   24   25 2
    29   24   28 1
    30   25   26 1
    31   26   27 3
    32    1   29 1
    33    1   30 1
    34    1   31 1
    35    4   32 1
    36    5   33 1
    37    6   34 1
    38   10   35 1
    39   10   36 1
    40   10   37 1
    41   11   38 1
    42   15   39 1
    43   16   40 1
    44   17   41 1
    45   18   42 1
    46   28   43 1
    47   28   44 1
@<TRIPOS>MOLECULE
ZINC00640404
 53 57 0 0 0
SMALL
NO_CHARGES


@<TRIPOS>ATOM
      1 C          -4.728    -0.034     0.954  C    
      2 O          -3.943     1.086     1.369  O    
      3 C          -4.365     2.106     2.163  C    
      4 O          -5.629     2.118     2.650  O    
      5 C          -3.437     3.218     2.498  C    
      6 C          -2.148     2.682     3.193  C    
      7 C          -1.214     3.830     3.683  C    
      8 C          -1.363     5.164     2.897  C    
      9 C          -1.767     4.943     1.408  C    
     10 C          -3.088     4.090     1.231  C    
     11 C          -4.315     4.949     0.754  C    
     12 C          -4.276     6.382     1.357  C    
     13 C          -5.545     7.119     1.136  C    
     14 C          -5.604     8.397     0.582  C    
     15 C          -6.938     8.789     0.621  C    
     16 C          -7.594     9.968     0.226  C    
     17 C          -8.991    10.059     0.407  C    
     18 C          -9.710     8.983     0.979  C    
     19 C          -9.040     7.808     1.376  C    
     20 C          -7.649     7.728     1.188  C    
     21 N          -6.790     6.744     1.489  N    
     22 C          -4.412     9.139     0.138  C    
     23 C          -3.249     8.159    -0.160  C    
     24 C          -1.835     6.290     0.626  C    
     25 O          -2.464     1.825     4.292  O    
     26 N          -3.035     7.147     0.933  N    
     27 H          -5.099    -0.581     1.822  H    
     28 H          -4.105    -0.700     0.356  H    
     29 H          -5.570     0.303     0.348  H    
     30 H          -3.942     3.861     3.226  H    
     31 H          -1.595     2.075     2.469  H    
     32 H          -1.405     4.039     4.740  H    
     33 H          -0.179     3.485     3.608  H    
     34 H          -2.116     5.781     3.390  H    
     35 H          -0.415     5.708     2.951  H    
     36 H          -0.942     4.373     0.965  H    
     37 H          -2.884     3.390     0.412  H    
     38 H          -4.296     5.038    -0.337  H    
     39 H          -5.253     4.453     1.013  H    
     40 H          -4.220     6.270     2.442  H    
     41 H          -7.073    10.746    -0.186  H    
     42 H          -9.486    10.905     0.124  H    
     43 H         -10.720     9.059     1.108  H    
     44 H          -9.552     7.029     1.795  H    
     45 H          -7.022     5.902     1.912  H    
     46 H          -4.642     9.706    -0.767  H    
     47 H          -4.121     9.841     0.923  H    
     48 H          -3.469     7.644    -1.101  H    
     49 H          -2.339     8.750    -0.305  H    
     50 H          -0.931     6.873     0.822  H    
     51 H          -1.820     6.031    -0.439  H    
     52 H          -2.975     2.382     4.915  H    
     53 H          -2.773     7.697     1.755  H    
@<TRIPOS>BOND
     1    1    2 1
     2    2    3 1
     3    3    4 2
     4    3    5 1
     5    5   10 1
     6    5    6 1
     7    6    7 1
     8    6   25 1
     9    7    8 1
    10    8    9 1
    11    9   24 1
    12    9   10 1
    13   10   11 1
    14   11   12 1
    15   12   13 1
    16   12   26 1
    17   13   21 1
    18   13   14 2
    19   14   15 1
    20   14   22 1
    21   15   20 ar
    22   15   16 ar
    23   16   17 ar
    24   17   18 ar
    25   18   19 ar
    26   19   20 ar
    27   20   21 1
    28   22   23 1
    29   23   26 1
    30   24   26 1
    31    1   27 1
    32    1   28 1
    33    1   29 1
    34    5   30 1
    35    6   31 1
    36    7   32 1
    37    7   33 1
    38    8   34 1
    39    8   35 1
    40    9   36 1
    41   10   37 1
    42   11   38 1
    43   11   39 1
    44   12   40 1
    45   16   41 1
    46   17   42 1
    47   18   43 1
    48   19   44 1
    49   21   45 1
    50   22   46 1
    51   22   47 1
    52   23   48 1
    53   23   49 1
    54   24   50 1
    55   24   51 1
    56   25   52 1
    57   26   53 1
@<TRIPOS>MOLECULE
ZINC00653348
 39 42 0 0 0
SMALL
NO_CHARGES


@<TRIPOS>ATOM
      1 C           0.502     7.630     7.516  C    
      2 C           1.636     8.118     6.688  C    
      3 C           1.869     9.511     6.563  C    
      4 C           2.937     9.995     5.768  C    
      5 N           3.733     9.108     5.114  N    
      6 C           3.530     7.775     5.216  C    
      7 C           2.497     7.224     5.999  C    
      8 C           2.487     5.809     5.960  C    
      9 C           3.477     5.239     5.143  C    
     10 S           4.414     6.511     4.459  S    
     11 C           3.550     3.859     5.014  C    
     12 O           4.414     3.372     4.293  O    
     13 N           2.662     3.111     5.699  N    
     14 N           1.774     3.697     6.456  N    
     15 N           1.655     4.955     6.606  N    
     16 C           2.616     1.664     5.620  C    
     17 C           2.015     1.170     4.386  C    
     18 O           1.092     1.833     3.927  O    
     19 C           2.317    -0.064     3.778  C    
     20 C           3.007    -1.109     4.452  C    
     21 C           3.313    -2.325     3.809  C    
     22 C           2.931    -2.531     2.472  C    
     23 C           2.230    -1.526     1.787  C    
     24 C           1.926    -0.313     2.434  C    
     25 C           3.192    11.443     5.646  C    
     26 H          -0.187     7.058     6.894  H    
     27 H          -0.060     8.446     7.973  H    
     28 H           0.880     6.995     8.317  H    
     29 H           1.264    10.178     7.049  H    
     30 H           3.640     1.294     5.734  H    
     31 H           2.035     1.247     6.452  H    
     32 H           3.283    -1.016     5.429  H    
     33 H           3.807    -3.067     4.313  H    
     34 H           3.155    -3.413     2.001  H    
     35 H           1.940    -1.677     0.818  H    
     36 H           1.425     0.393     1.896  H    
     37 H           2.315    11.937     5.216  H    
     38 H           4.053    11.640     5.004  H    
     39 H           3.392    11.866     6.635  H    
@<TRIPOS>BOND
     1    1    2 1
     2    2    7 ar
     3    2    3 ar
     4    3    4 ar
     5    4    5 ar
     6    4   25 1
     7    5    6 ar
     8    6   10 1
     9    6    7 ar
    10    7    8 1
    11    8   15 1
    12    8    9 2
    13    9   10 1
    14    9   11 1
    15   11   12 2
    16   11   13 1
    17   13   14 1
    18   13   16 1
    19   14   15 2
    20   16   17 1
    21   17   18 2
    22   17   19 1
    23   19   24 ar
    24   19   20 ar
    25   20   21 ar
    26   21   22 ar
    27   22   23 ar
    28   23   24 ar
    29    1   26 1
    30    1   27 1
    31    1   28 1
    32    3   29 1
    33   16   30 1
    34   16   31 1
    35   20   32 1
    36   21   33 1
    37   22   34 1
    38   23   35 1
    39   24   36 1
    40   25   37 1
    41   25   38 1
    42   25   39 1
@<TRIPOS>MOLECULE
ZINC00682396
 29 30 0 0 0
SMALL
NO_CHARGES


@<TRIPOS>ATOM
      1 C           5.926    -6.647     2.533  C    
      2 C           5.271    -7.168     1.304  C    
      3 C           5.727    -8.391     0.757  C    
      4 C           5.144    -8.928    -0.403  C    
      5 C           4.102    -8.237    -1.040  C    
      6 C           3.646    -7.018    -0.512  C    
      7 C           4.198    -6.473     0.675  C    
      8 N           3.779    -5.282     1.222  N    
      9 C           2.675    -4.566     1.037  C    
     10 O           1.737    -4.912     0.332  O    
     11 C           2.529    -3.390     1.734  C    
     12 C           2.054    -3.428     3.065  C    
     13 C           1.863    -2.236     3.789  C    
     14 C           2.151    -0.995     3.193  C    
     15 C           2.623    -0.950     1.869  C    
     16 C           2.810    -2.138     1.136  C    
     17 Br          3.438    -1.996    -0.614  Br   
     18 Br          1.902     0.575     4.154  Br   
     19 H           6.359    -5.665     2.333  H    
     20 H           6.730    -7.298     2.889  H    
     21 H           5.189    -6.557     3.333  H    
     22 H           6.493    -8.910     1.196  H    
     23 H           5.483    -9.812    -0.788  H    
     24 H           3.684    -8.618    -1.892  H    
     25 H           2.917    -6.530    -1.032  H    
     26 H           4.385    -4.906     1.883  H    
     27 H           1.834    -4.323     3.516  H    
     28 H           1.510    -2.274     4.747  H    
     29 H           2.826    -0.045     1.437  H    
@<TRIPOS>BOND
     1    1    2 1
     2    2    7 ar
     3    2    3 ar
     4    3    4 ar
     5    4    5 ar
     6    5    6 ar
     7    6    7 ar
     8    7    8 1
     9    8    9 1
    10    9   10 2
    11    9   11 1
    12   11   16 ar
    13   11   12 ar
    14   12   13 ar
    15   13   14 ar
    16   14   15 ar
    17   14   18 1
    18   15   16 ar
    19   16   17 1
    20    1   19 1
    21    1   20 1
    22    1   21 1
    23    3   22 1
    24    4   23 1
    25    5   24 1
    26    6   25 1
    27    8   26 1
    28   12   27 1
    29   13   28 1
    30   15   29 1
@<TRIPOS>MOLECULE
ZINC00685701
 58 62 0 0 0
SMALL
NO_CHARGES


@<TRIPOS>ATOM
      1 C           1.768    -0.685    -8.999  C    
      2 C           2.455     0.169    -7.999  C    
      3 C           1.808     1.282    -7.405  C    
      4 C           2.471     2.069    -6.445  C    
      5 C           3.803     1.781    -6.045  C    
      6 C           4.444     0.682    -6.674  C    
      7 C           3.779    -0.125    -7.616  C    
      8 C           4.579     2.607    -5.038  C    
      9 C           3.825     3.720    -4.402  C    
     10 C           2.895     3.476    -3.433  C    
     11 C           2.034     4.538    -2.886  C    
     12 C           2.484     5.991    -3.228  C    
     13 C           2.963     6.030    -4.702  C    
     14 C           3.992     5.013    -4.881  C    
     15 O           5.042     5.376    -5.403  O    
     16 C           1.433     7.014    -2.912  C    
     17 C           0.188     7.036    -3.590  C    
     18 C          -0.796     7.988    -3.267  C    
     19 C          -0.555     8.936    -2.258  C    
     20 C           0.672     8.935    -1.577  C    
     21 C           1.657     7.982    -1.901  C    
     22 N           2.549     2.269    -2.954  N    
     23 C           3.172     1.061    -2.933  C    
     24 C           2.429    -0.004    -2.372  C    
     25 C           2.968    -1.300    -2.293  C    
     26 C           4.262    -1.548    -2.778  C    
     27 C           5.016    -0.499    -3.330  C    
     28 C           4.490     0.819    -3.401  C    
     29 N           5.235     1.836    -3.972  N    
     30 C           6.449     2.150    -3.458  C    
     31 O           6.884     1.555    -2.475  O    
     32 C           7.322     3.209    -3.949  C    
     33 H           2.358    -0.730    -9.919  H    
     34 H           0.776    -0.305    -9.252  H    
     35 H           1.658    -1.698    -8.601  H    
     36 H           0.846     1.525    -7.670  H    
     37 H           1.964     2.868    -6.054  H    
     38 H           5.413     0.454    -6.445  H    
     39 H           4.272    -0.921    -8.028  H    
     40 H           5.363     3.012    -5.684  H    
     41 H           1.022     4.363    -3.262  H    
     42 H           2.003     4.451    -1.795  H    
     43 H           3.370     6.193    -2.610  H    
     44 H           2.138     5.807    -5.381  H    
     45 H           3.336     7.031    -4.943  H    
     46 H          -0.019     6.354    -4.323  H    
     47 H          -1.690     7.987    -3.763  H    
     48 H          -1.274     9.626    -2.021  H    
     49 H           0.848     9.625    -0.842  H    
     50 H           2.539     8.000    -1.385  H    
     51 H           1.691     2.265    -2.501  H    
     52 H           1.483     0.154    -2.018  H    
     53 H           2.421    -2.060    -1.888  H    
     54 H           4.652    -2.493    -2.731  H    
     55 H           5.946    -0.709    -3.702  H    
     56 H           7.590     3.022    -4.989  H    
     57 H           8.253     3.282    -3.380  H    
     58 H           6.812     4.171    -3.872  H    
@<TRIPOS>BOND
     1    1    2 1
     2    2    7 ar
     3    2    3 ar
     4    3    4 ar
     5    4    5 ar
     6    5    6 ar
     7    5    8 1
     8    6    7 ar
     9    8   29 1
    10    8    9 1
    11    9   14 1
    12    9   10 2
    13   10   11 1
    14   10   22 1
    15   11   12 1
    16   12   13 1
    17   12   16 1
    18   13   14 1
    19   14   15 2
    20   16   21 ar
    21   16   17 ar
    22   17   18 ar
    23   18   19 ar
    24   19   20 ar
    25   20   21 ar
    26   22   23 1
    27   23   28 ar
    28   23   24 ar
    29   24   25 ar
    30   25   26 ar
    31   26   27 ar
    32   27   28 ar
    33   28   29 1
    34   29   30 1
    35   30   31 2
    36   30   32 1
    37    1   33 1
    38    1   34 1
    39    1   35 1
    40    3   36 1
    41    4   37 1
    42    6   38 1
    43    7   39 1
    44    8   40 1
    45   11   41 1
    46   11   42 1
    47   12   43 1
    48   13   44 1
    49   13   45 1
    50   17   46 1
    51   18   47 1
    52   19   48 1
    53   20   49 1
    54   21   50 1
    55   22   51 1
    56   24   52 1
    57   25   53 1
    58   26   54 1
    59   27   55 1
    60   32   56 1
    61   32   57 1
    62   32   58 1
@<TRIPOS>MOLECULE
ZINC00691478
 54 57 0 0 0
SMALL
NO_CHARGES


@<TRIPOS>ATOM
      1 C           6.840     4.057    -1.347  C    
      2 N           6.120     4.255    -0.061  N    
      3 C           5.773     5.679     0.207  C    
      4 N           5.152     3.337     0.274  N    
      5 C           4.141     2.944    -0.534  C    
      6 C           3.678     1.658    -0.453  C    
      7 C           4.311     0.728     0.512  C    
      8 C           5.220     1.356     1.497  C    
      9 C           5.387     2.699     1.428  C    
     10 N           5.782     3.376     2.463  N    
     11 C           5.430     0.698     2.590  C    
     12 N           5.579     0.128     3.579  N    
     13 C           5.007    -0.396    -0.202  C    
     14 C           6.092    -0.160    -1.081  C    
     15 C           6.730    -1.213    -1.747  C    
     16 C           6.294    -2.529    -1.557  C    
     17 C           5.216    -2.798    -0.691  C    
     18 C           4.583    -1.736    -0.026  C    
     19 Cl          4.689    -4.393    -0.450  Cl   
     20 C           2.616     1.208    -1.225  C    
     21 O           2.029     0.169    -0.954  O    
     22 C           2.003     1.996    -2.286  C    
     23 C           2.882     3.207    -2.689  C    
     24 C           3.422     3.895    -1.404  C    
     25 C           2.169     4.133    -3.638  C    
     26 C           1.098     4.960    -3.210  C    
     27 C           0.480     5.859    -4.086  C    
     28 C           0.891     5.936    -5.423  C    
     29 C           1.912     5.094    -5.883  C    
     30 C           2.541     4.201    -5.001  C    
     31 H           6.219     4.263    -2.219  H    
     32 H           7.207     3.036    -1.409  H    
     33 H           7.709     4.721    -1.380  H    
     34 H           6.876     4.110     0.617  H    
     35 H           6.693     6.224     0.429  H    
     36 H           5.121     5.772     1.075  H    
     37 H           5.293     6.175    -0.638  H    
     38 H           3.472     0.323     1.101  H    
     39 H           5.982     2.944     3.265  H    
     40 H           5.881     4.303     2.420  H    
     41 H           6.420     0.796    -1.236  H    
     42 H           7.514    -1.023    -2.374  H    
     43 H           6.766    -3.302    -2.047  H    
     44 H           3.794    -1.947     0.608  H    
     45 H           1.845     1.373    -3.178  H    
     46 H           1.022     2.336    -1.941  H    
     47 H           3.760     2.777    -3.193  H    
     48 H           2.607     4.316    -0.819  H    
     49 H           4.033     4.726    -1.736  H    
     50 H           0.774     4.924    -2.238  H    
     51 H          -0.274     6.473    -3.754  H    
     52 H           0.441     6.600    -6.066  H    
     53 H           2.198     5.132    -6.869  H    
     54 H           3.286     3.587    -5.363  H    
@<TRIPOS>BOND
     1    1    2 1
     2    2    3 1
     3    2    4 1
     4    4    9 1
     5    4    5 1
     6    5   24 1
     7    5    6 2
     8    6    7 1
     9    6   20 1
    10    7    8 1
    11    7   13 1
    12    8    9 2
    13    8   11 1
    14    9   10 1
    15   11   12 3
    16   13   18 ar
    17   13   14 ar
    18   14   15 ar
    19   15   16 ar
    20   16   17 ar
    21   17   18 ar
    22   17   19 1
    23   20   21 2
    24   20   22 1
    25   22   23 1
    26   23   24 1
    27   23   25 1
    28   25   30 ar
    29   25   26 ar
    30   26   27 ar
    31   27   28 ar
    32   28   29 ar
    33   29   30 ar
    34    1   31 1
    35    1   32 1
    36    1   33 1
    37    2   34 1
    38    3   35 1
    39    3   36 1
    40    3   37 1
    41    7   38 1
    42   10   39 1
    43   10   40 1
    44   14   41 1
    45   15   42 1
    46   16   43 1
    47   18   44 1
    48   22   45 1
    49   22   46 1
    50   23   47 1
    51   24   48 1
    52   24   49 1
    53   26   50 1
    54   27   51 1
    55   28   52 1
    56   29   53 1
    57   30   54 1
@<TRIPOS>MOLECULE
ZINC00752711
 51 55 0 0 0
SMALL
NO_CHARGES


@<TRIPOS>ATOM
      1 C           6.153    -7.787    -6.300  C    
      2 C           5.253    -8.013    -5.044  C    
      3 C           5.174    -6.681    -4.213  C    
      4 C           4.665    -6.915    -2.847  C    
      5 C           4.724    -8.157    -2.206  C    
      6 C           4.183    -7.953    -0.935  C    
      7 C           3.951    -8.810     0.152  C    
      8 C           3.381    -8.326     1.357  C    
      9 C           3.060    -6.927     1.457  C    
     10 C           2.519    -6.305     2.613  C    
     11 C           2.194    -4.937     2.649  C    
     12 C           2.413    -4.131     1.522  C    
     13 C           2.963    -4.694     0.365  C    
     14 C           3.285    -6.069     0.327  C    
     15 C           3.841    -6.608    -0.847  C    
     16 O           4.145    -5.985    -2.010  O    
     17 N           3.217    -9.348     2.260  N    
     18 S           2.749    -9.404     3.880  S    
     19 O           1.230    -8.995     4.120  O    
     20 O           2.708   -10.971     4.163  O    
     21 C           3.923    -8.802     5.020  C    
     22 C           5.239    -9.322     5.007  C    
     23 C           6.197    -8.852     5.928  C    
     24 C           5.849    -7.849     6.858  C    
     25 C           4.540    -7.323     6.871  C    
     26 C           3.578    -7.801     5.957  C    
     27 C           5.259    -9.279    -2.829  C    
     28 O           5.436   -10.309    -2.192  O    
     29 C           5.863    -9.163    -4.154  C    
     30 C           3.824    -8.423    -5.536  C    
     31 H           7.162    -7.486    -6.007  H    
     32 H           5.739    -6.998    -6.932  H    
     33 H           6.229    -8.701    -6.896  H    
     34 H           6.167    -6.237    -4.111  H    
     35 H           4.532    -5.954    -4.714  H    
     36 H           4.206    -9.794     0.054  H    
     37 H           2.347    -6.826     3.460  H    
     38 H           1.797    -4.523     3.495  H    
     39 H           2.174    -3.138     1.548  H    
     40 H           3.121    -4.091    -0.448  H    
     41 H           3.471   -10.221     1.919  H    
     42 H           5.505   -10.044     4.332  H    
     43 H           7.148    -9.234     5.922  H    
     44 H           6.545    -7.506     7.526  H    
     45 H           4.291    -6.597     7.547  H    
     46 H           2.632    -7.412     5.978  H    
     47 H           5.764   -10.117    -4.681  H    
     48 H           6.933    -8.981    -4.009  H    
     49 H           3.384    -7.638    -6.154  H    
     50 H           3.151    -8.603    -4.694  H    
     51 H           3.864    -9.339    -6.134  H    
@<TRIPOS>BOND
     1    1    2 1
     2    2   29 1
     3    2    3 1
     4    2   30 1
     5    3    4 1
     6    4   16 1
     7    4    5 2
     8    5    6 1
     9    5   27 1
    10    6   15 ar
    11    6    7 ar
    12    7    8 ar
    13    8    9 ar
    14    8   17 1
    15    9   14 ar
    16    9   10 ar
    17   10   11 ar
    18   11   12 ar
    19   12   13 ar
    20   13   14 ar
    21   14   15 ar
    22   15   16 1
    23   17   18 1
    24   18   19 2
    25   18   20 2
    26   18   21 1
    27   21   26 ar
    28   21   22 ar
    29   22   23 ar
    30   23   24 ar
    31   24   25 ar
    32   25   26 ar
    33   27   28 2
    34   27   29 1
    35    1   31 1
    36    1   32 1
    37    1   33 1
    38    3   34 1
    39    3   35 1
    40    7   36 1
    41   10   37 1
    42   11   38 1
    43   12   39 1
    44   13   40 1
    45   17   41 1
    46   22   42 1
    47   23   43 1
    48   24   44 1
    49   25   45 1
    50   26   46 1
    51   29   47 1
    52   29   48 1
    53   30   49 1
    54   30   50 1
    55   30   51 1
@<TRIPOS>MOLECULE
ZINC00754052
 42 45 0 0 0
SMALL
NO_CHARGES


@<TRIPOS>ATOM
      1 C           8.826   -11.324    -0.134  C    
      2 O           8.535   -10.765     1.162  O    
      3 C           7.637    -9.726     1.285  C    
      4 C           7.322    -8.780     0.274  C    
      5 C           6.412    -7.737     0.526  C    
      6 C           5.807    -7.606     1.796  C    
      7 C           6.124    -8.542     2.807  C    
      8 C           7.033    -9.585     2.553  C    
      9 N           4.915    -6.586     2.038  N    
     10 C           3.624    -6.710     1.645  C    
     11 O           3.234    -7.735     1.095  O    
     12 C           2.696    -5.687     1.888  C    
     13 C           1.315    -5.598     1.568  C    
     14 C           0.698    -4.422     2.043  C    
     15 S           1.890    -3.452     2.812  S    
     16 C           3.178    -4.557     2.565  C    
     17 N           4.471    -4.440     2.942  N    
     18 C           5.346    -5.447     2.690  C    
     19 S           6.999    -5.162     3.197  S    
     20 C           6.693    -5.177     4.982  C    
     21 C          -0.727    -4.069     1.885  C    
     22 C          -1.583    -5.288     1.447  C    
     23 C          -0.867    -6.126     0.356  C    
     24 C           0.530    -6.620     0.827  C    
     25 H           7.906   -11.598    -0.664  H    
     26 H           9.420   -12.226     0.005  H    
     27 H           9.406   -10.613    -0.733  H    
     28 H           7.759    -8.836    -0.647  H    
     29 H           6.201    -7.064    -0.217  H    
     30 H           5.689    -8.467     3.730  H    
     31 H           7.248   -10.250     3.299  H    
     32 H           6.069    -4.327     5.267  H    
     33 H           7.642    -5.107     5.509  H    
     34 H           6.195    -6.107     5.270  H    
     35 H          -1.113    -3.689     2.833  H    
     36 H          -0.802    -3.276     1.138  H    
     37 H          -1.769    -5.927     2.316  H    
     38 H          -2.548    -4.944     1.068  H    
     39 H          -1.486    -6.986     0.087  H    
     40 H          -0.745    -5.508    -0.537  H    
     41 H           1.083    -6.934    -0.063  H    
     42 H           0.405    -7.488     1.479  H    
@<TRIPOS>BOND
     1    1    2 1
     2    2    3 1
     3    3    8 ar
     4    3    4 ar
     5    4    5 ar
     6    5    6 ar
     7    6    7 ar
     8    6    9 1
     9    7    8 ar
    10    9   18 1
    11    9   10 1
    12   10   11 2
    13   10   12 1
    14   12   16 2
    15   12   13 1
    16   13   24 1
    17   13   14 2
    18   14   15 1
    19   14   21 1
    20   15   16 1
    21   16   17 1
    22   17   18 2
    23   18   19 1
    24   19   20 1
    25   21   22 1
    26   22   23 1
    27   23   24 1
    28    1   25 1
    29    1   26 1
    30    1   27 1
    31    4   28 1
    32    5   29 1
    33    7   30 1
    34    8   31 1
    35   20   32 1
    36   20   33 1
    37   20   34 1
    38   21   35 1
    39   21   36 1
    40   22   37 1
    41   22   38 1
    42   23   39 1
    43   23   40 1
    44   24   41 1
    45   24   42 1
@<TRIPOS>MOLECULE
ZINC00781710
 51 55 0 0 0
SMALL
NO_CHARGES


@<TRIPOS>ATOM
      1 C           2.307   -10.759    10.427  C    
      2 O           2.203   -10.867     8.997  O    
      3 C           2.390    -9.679     8.344  C    
      4 C           3.684    -9.179     8.096  C    
      5 C           3.852    -7.968     7.401  C    
      6 C           2.726    -7.260     6.938  C    
      7 C           1.414    -7.749     7.157  C    
      8 C           1.269    -8.973     7.861  C    
      9 C           0.210    -7.008     6.645  C    
     10 C          -0.773    -6.489     7.626  C    
     11 C          -1.900    -5.855     7.187  C    
     12 C          -2.876    -5.318     8.148  C    
     13 C          -3.014    -6.270     9.375  C    
     14 C          -1.597    -6.450     9.995  C    
     15 C          -0.534    -6.538     8.995  C    
     16 O           0.600    -6.378     9.427  O    
     17 C          -4.004    -5.840    10.396  C    
     18 C          -4.416    -6.598    11.501  C    
     19 C          -5.358    -5.973    12.338  C    
     20 C          -5.729    -4.694    11.929  C    
     21 S          -4.861    -4.348    10.488  S    
     22 N          -2.258    -5.651     5.908  N    
     23 C          -2.096    -6.431     4.812  C    
     24 C          -2.904    -6.104     3.698  C    
     25 C          -2.956    -6.941     2.571  C    
     26 C          -2.196    -8.123     2.540  C    
     27 C          -1.362    -8.444     3.627  C    
     28 C          -1.279    -7.588     4.746  C    
     29 N          -0.356    -7.902     5.679  N    
     30 H           3.334   -10.502    10.722  H    
     31 H           2.056   -11.730    10.854  H    
     32 H           1.614   -10.016    10.837  H    
     33 H           4.504    -9.693     8.429  H    
     34 H           4.793    -7.606     7.230  H    
     35 H           2.878    -6.386     6.429  H    
     36 H           0.332    -9.351     8.032  H    
     37 H           0.566    -6.130     6.093  H    
     38 H          -2.533    -4.332     8.476  H    
     39 H          -3.868    -5.197     7.693  H    
     40 H          -3.350    -7.245     9.003  H    
     41 H          -1.389    -5.594    10.647  H    
     42 H          -1.576    -7.353    10.609  H    
     43 H          -4.056    -7.534    11.691  H    
     44 H          -5.738    -6.415    13.177  H    
     45 H          -6.391    -4.073    12.398  H    
     46 H          -2.902    -4.936     5.786  H    
     47 H          -3.498    -5.269     3.716  H    
     48 H          -3.565    -6.706     1.783  H    
     49 H          -2.239    -8.737     1.725  H    
     50 H          -0.785    -9.290     3.574  H    
     51 H           0.101    -8.751     5.554  H    
@<TRIPOS>BOND
     1    1    2 1
     2    2    3 1
     3    3    8 ar
     4    3    4 ar
     5    4    5 ar
     6    5    6 ar
     7    6    7 ar
     8    7    8 ar
     9    7    9 1
    10    9   29 1
    11    9   10 1
    12   10   15 1
    13   10   11 2
    14   11   12 1
    15   11   22 1
    16   12   13 1
    17   13   14 1
    18   13   17 1
    19   14   15 1
    20   15   16 2
    21   17   21 1
    22   17   18 2
    23   18   19 1
    24   19   20 2
    25   20   21 1
    26   22   23 1
    27   23   28 ar
    28   23   24 ar
    29   24   25 ar
    30   25   26 ar
    31   26   27 ar
    32   27   28 ar
    33   28   29 1
    34    1   30 1
    35    1   31 1
    36    1   32 1
    37    4   33 1
    38    5   34 1
    39    6   35 1
    40    8   36 1
    41    9   37 1
    42   12   38 1
    43   12   39 1
    44   13   40 1
    45   14   41 1
    46   14   42 1
    47   18   43 1
    48   19   44 1
    49   20   45 1
    50   22   46 1
    51   24   47 1
    52   25   48 1
    53   26   49 1
    54   27   50 1
    55   29   51 1
@<TRIPOS>MOLECULE
ZINC00809261
 34 37 0 0 0
SMALL
NO_CHARGES


@<TRIPOS>ATOM
      1 C           4.340     1.851    -5.400  C    
      2 O           4.638     3.222    -5.085  O    
      3 C           3.516     3.977    -4.870  C    
      4 C           2.967     4.057    -3.574  C    
      5 C           1.817     4.841    -3.310  C    
      6 C           1.205     5.514    -4.394  C    
      7 C           1.759     5.454    -5.685  C    
      8 C           2.919     4.697    -5.926  C    
      9 O           3.426     4.662    -7.186  O    
     10 C           1.216     4.886    -2.054  C    
     11 C           1.805     4.987    -0.844  C    
     12 C           3.103     5.285    -0.553  C    
     13 O           3.948     5.682    -1.343  O    
     14 N           3.346     5.248     0.735  N    
     15 C           4.376     5.440     1.571  C    
     16 C           3.878     5.247     2.862  C    
     17 C           4.736     5.380     3.967  C    
     18 C           6.089     5.706     3.735  C    
     19 C           6.539     5.891     2.408  C    
     20 N           5.679     5.755     1.359  N    
     21 Br          7.269     5.893     5.162  Br   
     22 N           2.567     4.956     2.788  N    
     23 C           2.279     4.965     1.473  C    
     24 S           0.834     4.747     0.562  S    
     25 H           3.812     1.360    -4.579  H    
     26 H           5.282     1.326    -5.563  H    
     27 H           3.745     1.771    -6.314  H    
     28 H           3.400     3.509    -2.827  H    
     29 H           0.357     6.070    -4.251  H    
     30 H           1.311     5.962    -6.451  H    
     31 H           4.258     4.150    -7.130  H    
     32 H           0.221     4.842    -2.060  H    
     33 H           4.384     5.243     4.916  H    
     34 H           7.515     6.128     2.225  H    
@<TRIPOS>BOND
     1    1    2 1
     2    2    3 1
     3    3    8 ar
     4    3    4 ar
     5    4    5 ar
     6    5    6 ar
     7    5   10 1
     8    6    7 ar
     9    7    8 ar
    10    8    9 1
    11   10   11 2
    12   11   24 1
    13   11   12 1
    14   12   13 2
    15   12   14 1
    16   14   23 1
    17   14   15 1
    18   15   20 ar
    19   15   16 ar
    20   16   17 ar
    21   16   22 1
    22   17   18 ar
    23   18   19 ar
    24   18   21 1
    25   19   20 ar
    26   22   23 2
    27   23   24 1
    28    1   25 1
    29    1   26 1
    30    1   27 1
    31    4   28 1
    32    6   29 1
    33    7   30 1
    34    9   31 1
    35   10   32 1
    36   17   33 1
    37   19   34 1
@<TRIPOS>MOLECULE
ZINC00850676
 59 63 0 0 0
SMALL
NO_CHARGES


@<TRIPOS>ATOM
      1 C           1.441    -8.938    12.135  C    
      2 C           0.946    -7.935    11.048  C    
      3 C           0.384    -8.707     9.800  C    
      4 C           0.977    -6.843     8.308  C    
      5 C           1.577    -6.035     9.513  C    
      6 C           1.984    -7.018    10.538  C    
      7 O           3.138    -7.073    10.949  O    
      8 C           0.403    -5.200    10.124  C    
      9 C          -0.217    -7.042    11.615  C    
     10 C          -1.279    -6.923     9.388  C    
     11 C          -2.078    -6.167     8.377  C    
     12 C          -2.488    -4.833     8.433  C    
     13 N          -3.207    -4.511     7.338  N    
     14 C          -3.327    -5.620     6.574  C    
     15 C          -2.659    -6.674     7.212  C    
     16 C          -2.667    -7.970     6.658  C    
     17 C          -3.323    -8.197     5.428  C    
     18 C          -3.975    -7.126     4.776  C    
     19 C          -3.985    -5.837     5.346  C    
     20 S          -3.289    -9.784     4.714  S    
     21 O          -3.901   -10.803     5.774  O    
     22 O          -4.255    -9.911     3.457  O    
     23 N          -1.731   -10.282     4.272  N    
     24 C          -1.009   -11.153     5.149  C    
     25 C          -1.031    -9.469     3.316  C    
     26 C          -3.738    -3.202     7.107  C    
     27 C           2.726    -5.099     9.026  C    
     28 N          -0.142    -7.721     8.793  N    
     29 N          -0.721    -6.117    10.540  N    
     30 H           2.240    -9.573    11.738  H    
     31 H           0.627    -9.585    12.468  H    
     32 H           1.829    -8.401    13.003  H    
     33 H           1.168    -9.320     9.342  H    
     34 H          -0.416    -9.393    10.097  H    
     35 H           0.602    -6.160     7.535  H    
     36 H           1.750    -7.458     7.836  H    
     37 H           0.751    -4.626    10.991  H    
     38 H           0.056    -4.469     9.393  H    
     39 H          -1.037    -7.667    11.982  H    
     40 H           0.135    -6.460    12.473  H    
     41 H          -2.018    -7.625     9.791  H    
     42 H          -2.283    -4.187     9.199  H    
     43 H          -2.213    -8.740     7.145  H    
     44 H          -4.449    -7.275     3.881  H    
     45 H          -4.467    -5.075     4.866  H    
     46 H          -0.762   -10.629     6.078  H    
     47 H          -0.081   -11.511     4.694  H    
     48 H          -1.614   -12.033     5.385  H    
     49 H          -1.694    -9.195     2.483  H    
     50 H          -0.178   -10.003     2.889  H    
     51 H          -0.671    -8.552     3.796  H    
     52 H          -4.410    -2.926     7.923  H    
     53 H          -4.297    -3.136     6.175  H    
     54 H          -2.922    -2.480     7.064  H    
     55 H           3.527    -5.682     8.571  H    
     56 H           3.139    -4.536     9.868  H    
     57 H           2.356    -4.384     8.287  H    
     58 H          -0.495    -8.251     7.994  H    
     59 H          -1.475    -5.551    10.936  H    
@<TRIPOS>BOND
     1    1    2 1
     2    2    6 1
     3    2    9 1
     4    2    3 1
     5    3   28 1
     6    4    5 1
     7    4   28 1
     8    5    6 1
     9    5    8 1
    10    5   27 1
    11    6    7 2
    12    8   29 1
    13    9   29 1
    14   10   11 1
    15   10   28 1
    16   10   29 1
    17   11   15 1
    18   11   12 2
    19   12   13 1
    20   13   14 1
    21   13   26 1
    22   14   19 ar
    23   14   15 ar
    24   15   16 ar
    25   16   17 ar
    26   17   18 ar
    27   17   20 1
    28   18   19 ar
    29   20   21 2
    30   20   22 2
    31   20   23 1
    32   23   24 1
    33   23   25 1
    34    1   30 1
    35    1   31 1
    36    1   32 1
    37    3   33 1
    38    3   34 1
    39    4   35 1
    40    4   36 1
    41    8   37 1
    42    8   38 1
    43    9   39 1
    44    9   40 1
    45   10   41 1
    46   12   42 1
    47   16   43 1
    48   18   44 1
    49   19   45 1
    50   24   46 1
    51   24   47 1
    52   24   48 1
    53   25   49 1
    54   25   50 1
    55   25   51 1
    56   26   52 1
    57   26   53 1
    58   26   54 1
    59   27   55 1
    60   27   56 1
    61   27   57 1
    62   28   58 1
    63   29   59 1
@<TRIPOS>MOLECULE
ZINC00874458
 41 43 0 0 0
SMALL
NO_CHARGES


@<TRIPOS>ATOM
      1 C           7.430    -9.147    -0.917  C    
      2 C           5.416    -8.804     0.495  C    
      3 C           4.884    -8.725     1.951  C    
      4 N           5.639    -7.754     2.720  N    
      5 C           7.080    -7.934     2.708  C    
      6 C           7.617    -7.969     1.257  C    
      7 C           5.055    -6.649     3.294  C    
      8 C           3.782    -6.599     3.943  C    
      9 C           3.279    -5.333     4.344  C    
     10 C           4.035    -4.156     4.174  C    
     11 C           3.577    -2.892     4.603  C    
     12 C           4.359    -1.727     4.406  C    
     13 C           5.624    -1.859     3.796  C    
     14 C           6.101    -3.119     3.383  C    
     15 C           5.310    -4.264     3.574  C    
     16 N           5.742    -5.480     3.172  N    
     17 O           4.012    -0.461     4.812  O    
     18 C           2.622    -0.083     4.790  C    
     19 C           3.058    -7.723     4.333  C    
     20 O           3.611    -8.775     4.619  O    
     21 N           6.896    -9.013     0.468  N    
     22 H           6.929    -9.965    -1.441  H    
     23 H           8.499    -9.375    -0.895  H    
     24 H           7.282    -8.227    -1.489  H    
     25 H           4.916    -9.634    -0.011  H    
     26 H           5.156    -7.877    -0.031  H    
     27 H           3.821    -8.482     1.884  H    
     28 H           4.975    -9.707     2.420  H    
     29 H           7.616    -7.163     3.269  H    
     30 H           7.312    -8.885     3.196  H    
     31 H           7.491    -6.982     0.803  H    
     32 H           8.686    -8.195     1.290  H    
     33 H           2.367    -5.264     4.807  H    
     34 H           2.667    -2.818     5.067  H    
     35 H           6.216    -1.036     3.655  H    
     36 H           7.023    -3.194     2.948  H    
     37 H           2.162    -0.298     3.820  H    
     38 H           2.560     0.993     4.971  H    
     39 H           2.069    -0.599     5.583  H    
     40 H           2.109    -7.637     4.615  H    
     41 H           7.077    -9.906     0.930  H    
@<TRIPOS>BOND
     1    1   21 1
     2    2    3 1
     3    2   21 1
     4    3    4 1
     5    4    5 1
     6    4    7 1
     7    5    6 1
     8    6   21 1
     9    7   16 ar
    10    7    8 ar
    11    8    9 ar
    12    8   19 1
    13    9   10 ar
    14   10   15 ar
    15   10   11 ar
    16   11   12 ar
    17   12   13 ar
    18   12   17 1
    19   13   14 ar
    20   14   15 ar
    21   15   16 ar
    22   17   18 1
    23   19   20 2
    24    1   22 1
    25    1   23 1
    26    1   24 1
    27    2   25 1
    28    2   26 1
    29    3   27 1
    30    3   28 1
    31    5   29 1
    32    5   30 1
    33    6   31 1
    34    6   32 1
    35    9   33 1
    36   11   34 1
    37   13   35 1
    38   14   36 1
    39   18   37 1
    40   18   38 1
    41   18   39 1
    42   19   40 1
    43   21   41 1
@<TRIPOS>MOLECULE
ZINC00876921
 52 56 0 0 0
SMALL
NO_CHARGES


@<TRIPOS>ATOM
      1 C           5.900    -8.105    -0.106  C    
      2 C           5.355    -9.343    -0.496  C    
      3 C           4.461   -10.031     0.350  C    
      4 C           4.113    -9.458     1.593  C    
      5 C           4.655    -8.216     1.980  C    
      6 C           5.555    -7.519     1.138  C    
      7 C           6.096    -6.183     1.534  C    
      8 C           4.992    -5.064     1.528  C    
      9 C           4.652    -4.580     0.089  C    
     10 C           5.434    -3.382    -0.030  C    
     11 C           5.909    -2.952     1.136  C    
     12 C           5.465    -3.760     2.241  C    
     13 C           6.474    -3.940     3.324  C    
     14 C           6.847    -2.847     4.144  C    
     15 C           7.719    -3.033     5.236  C    
     16 C           8.209    -4.318     5.532  C    
     17 C           7.868    -5.406     4.709  C    
     18 C           7.028    -5.221     3.591  C    
     19 N           6.764    -6.283     2.796  N    
     20 Cl          8.153    -1.717     6.207  Cl   
     21 S           3.767   -11.551    -0.142  S    
     22 O           3.764   -12.570     1.079  O    
     23 O           4.698   -12.290    -1.200  O    
     24 N           2.200   -11.412    -0.771  N    
     25 C           2.006   -11.001    -2.138  C    
     26 C           1.384    -9.580    -2.160  C    
     27 O           0.218    -9.514    -1.312  O    
     28 C           0.467    -9.908     0.053  C    
     29 C           1.071   -11.335     0.118  C    
     30 H           6.538    -7.622    -0.750  H    
     31 H           5.610    -9.734    -1.409  H    
     32 H           3.461    -9.936     2.222  H    
     33 H           4.383    -7.820     2.887  H    
     34 H           6.883    -5.881     0.838  H    
     35 H           4.081    -5.430     2.024  H    
     36 H           4.933    -5.305    -0.679  H    
     37 H           3.589    -4.333    -0.006  H    
     38 H           5.526    -2.877    -0.882  H    
     39 H           6.370    -2.075     1.247  H    
     40 H           4.588    -3.275     2.685  H    
     41 H           6.455    -1.916     3.960  H    
     42 H           8.830    -4.467     6.336  H    
     43 H           8.247    -6.336     4.923  H    
     44 H           7.181    -7.133     3.019  H    
     45 H           2.937   -10.996    -2.712  H    
     46 H           1.321   -11.703    -2.624  H    
     47 H           2.121    -8.839    -1.836  H    
     48 H           1.082    -9.331    -3.180  H    
     49 H           1.142    -9.189     0.528  H    
     50 H          -0.480    -9.890     0.597  H    
     51 H           0.319   -12.062    -0.204  H    
     52 H           1.334   -11.569     1.153  H    
@<TRIPOS>BOND
     1    1    6 ar
     2    1    2 ar
     3    2    3 ar
     4    3    4 ar
     5    3   21 1
     6    4    5 ar
     7    5    6 ar
     8    6    7 1
     9    7   19 1
    10    7    8 1
    11    8   12 1
    12    8    9 1
    13    9   10 1
    14   10   11 2
    15   11   12 1
    16   12   13 1
    17   13   18 ar
    18   13   14 ar
    19   14   15 ar
    20   15   16 ar
    21   15   20 1
    22   16   17 ar
    23   17   18 ar
    24   18   19 1
    25   21   22 2
    26   21   23 2
    27   21   24 1
    28   24   29 1
    29   24   25 1
    30   25   26 1
    31   26   27 1
    32   27   28 1
    33   28   29 1
    34    1   30 1
    35    2   31 1
    36    4   32 1
    37    5   33 1
    38    7   34 1
    39    8   35 1
    40    9   36 1
    41    9   37 1
    42   10   38 1
    43   11   39 1
    44   12   40 1
    45   14   41 1
    46   16   42 1
    47   17   43 1
    48   19   44 1
    49   25   45 1
    50   25   46 1
    51   26   47 1
    52   26   48 1
    53   28   49 1
    54   28   50 1
    55   29   51 1
    56   29   52 1
@<TRIPOS>MOLECULE
ZINC00918618
 43 46 0 0 0
SMALL
NO_CHARGES


@<TRIPOS>ATOM
      1 C           8.724     0.120    -0.415  C    
      2 C           7.409    -0.283    -0.229  C    
      3 C           6.751    -0.124    -1.449  C    
      4 O           7.634     0.361    -2.362  O    
      5 C           8.832     0.514    -1.746  C    
      6 C           5.332    -0.411    -1.725  C    
      7 C           4.554     0.894    -2.095  C    
      8 C           3.125     0.590    -2.668  C    
      9 N           3.177    -0.540    -3.565  N    
     10 C           4.178    -1.442    -3.589  C    
     11 C           3.897    -2.358    -4.584  C    
     12 C           2.666    -1.975    -5.115  C    
     13 N           2.289    -0.855    -4.461  N    
     14 C           1.985    -2.575    -6.169  C    
     15 O           2.715    -3.087    -7.015  O    
     16 N           0.645    -2.587    -6.344  N    
     17 C          -0.303    -2.321    -5.270  C    
     18 C          -1.155    -1.066    -5.571  C    
     19 S          -2.157    -1.292    -7.065  S    
     20 C          -0.791    -1.734    -8.174  C    
     21 C           0.038    -2.924    -7.626  C    
     22 N           5.244    -1.400    -2.758  N    
     23 C           2.029     0.394    -1.577  C    
     24 F           0.787     0.244    -2.152  F    
     25 F           2.264    -0.716    -0.797  F    
     26 F           1.947     1.491    -0.746  F    
     27 H           9.465     0.130     0.291  H    
     28 H           7.001    -0.627     0.644  H    
     29 H           9.682     0.870    -2.187  H    
     30 H           4.879    -0.840    -0.827  H    
     31 H           4.500     1.553    -1.226  H    
     32 H           5.114     1.425    -2.871  H    
     33 H           2.833     1.464    -3.262  H    
     34 H           4.471    -3.158    -4.857  H    
     35 H          -0.970    -3.183    -5.159  H    
     36 H           0.168    -2.195    -4.292  H    
     37 H          -1.833    -0.872    -4.734  H    
     38 H          -0.503    -0.196    -5.697  H    
     39 H          -1.219    -2.005    -9.145  H    
     40 H          -0.141    -0.863    -8.319  H    
     41 H           0.767    -3.187    -8.400  H    
     42 H          -0.614    -3.797    -7.506  H    
     43 H           5.916    -2.100    -2.812  H    
@<TRIPOS>BOND
     1    1    5 2
     2    1    2 1
     3    2    3 2
     4    3    4 1
     5    3    6 1
     6    4    5 1
     7    6   22 1
     8    6    7 1
     9    7    8 1
    10    8    9 1
    11    8   23 1
    12    9   13 1
    13    9   10 1
    14   10   11 2
    15   10   22 1
    16   11   12 1
    17   12   13 2
    18   12   14 1
    19   14   15 2
    20   14   16 1
    21   16   21 1
    22   16   17 1
    23   17   18 1
    24   18   19 1
    25   19   20 1
    26   20   21 1
    27   23   24 1
    28   23   25 1
    29   23   26 1
    30    1   27 1
    31    2   28 1
    32    5   29 1
    33    6   30 1
    34    7   31 1
    35    7   32 1
    36    8   33 1
    37   11   34 1
    38   17   35 1
    39   17   36 1
    40   18   37 1
    41   18   38 1
    42   20   39 1
    43   20   40 1
    44   21   41 1
    45   21   42 1
    46   22   43 1
@<TRIPOS>MOLECULE
ZINC00936944
 35 37 0 0 0
SMALL
NO_CHARGES


@<TRIPOS>ATOM
      1 C           3.751    -4.757     5.466  C    
      2 C           4.160    -3.630     4.633  C    
      3 C           4.421    -2.367     5.079  C    
      4 C           4.749    -1.282     4.116  C    
      5 N           4.878    -1.750     2.762  N    
      6 C           4.640    -3.011     2.409  C    
      7 N           4.857    -3.077     1.097  N    
      8 N           5.205    -1.908     0.756  N    
      9 N           5.219    -1.137     1.713  N    
     10 N           4.268    -3.932     3.323  N    
     11 C           3.747    -0.160     4.157  C    
     12 C           4.195     1.142     4.503  C    
     13 C           3.300     2.221     4.581  C    
     14 C           1.937     2.017     4.318  C    
     15 C           1.475     0.737     3.970  C    
     16 C           2.365    -0.362     3.865  C    
     17 O           1.970    -1.643     3.550  O    
     18 C           0.685    -1.943     2.969  C    
     19 Br          3.915     3.914     5.049  Br   
     20 C           4.431    -2.053     6.401  C    
     21 O           3.438    -1.571     6.925  O    
     22 N           5.496    -2.272     7.138  N    
     23 H           2.786    -5.134     5.119  H    
     24 H           3.644    -4.513     6.523  H    
     25 H           4.490    -5.557     5.383  H    
     26 H           5.749    -0.923     4.386  H    
     27 H           4.093    -4.840     3.026  H    
     28 H           5.181     1.314     4.707  H    
     29 H           1.282     2.796     4.385  H    
     30 H           0.477     0.621     3.799  H    
     31 H          -0.117    -1.734     3.681  H    
     32 H           0.658    -3.005     2.722  H    
     33 H           0.527    -1.369     2.051  H    
     34 H           5.491    -2.051     8.082  H    
     35 H           6.292    -2.660     6.743  H    
@<TRIPOS>BOND
     1    1    2 1
     2    2   10 1
     3    2    3 2
     4    3    4 1
     5    3   20 1
     6    4    5 1
     7    4   11 1
     8    5    9 1
     9    5    6 1
    10    6    7 2
    11    6   10 1
    12    7    8 1
    13    8    9 2
    14   11   16 ar
    15   11   12 ar
    16   12   13 ar
    17   13   14 ar
    18   13   19 1
    19   14   15 ar
    20   15   16 ar
    21   16   17 1
    22   17   18 1
    23   20   21 2
    24   20   22 1
    25    1   23 1
    26    1   24 1
    27    1   25 1
    28    4   26 1
    29   10   27 1
    30   12   28 1
    31   14   29 1
    32   15   30 1
    33   18   31 1
    34   18   32 1
    35   18   33 1
    36   22   34 1
    37   22   35 1
@<TRIPOS>MOLECULE
ZINC00948242
 50 53 0 0 0
SMALL
NO_CHARGES


@<TRIPOS>ATOM
      1 C          -1.355     0.981    -9.490  C    
      2 C          -1.211    -0.410    -8.817  C    
      3 N           0.173    -0.758    -8.586  N    
      4 C           0.902    -1.416    -9.529  C    
      5 C           0.562    -1.913   -10.819  C    
      6 C           1.562    -2.562   -11.594  C    
      7 C           2.882    -2.705   -11.080  C    
      8 C           3.210    -2.201    -9.788  C    
      9 C           2.196    -1.556    -9.036  C    
     10 N           2.208    -0.979    -7.817  N    
     11 C           0.988    -0.473    -7.516  C    
     12 C           0.738     0.198    -6.349  C    
     13 C          -0.416     0.713    -6.041  C    
     14 N          -1.436     1.181    -5.773  N    
     15 C           1.758     0.392    -5.382  C    
     16 C           2.224     1.659    -4.925  C    
     17 N           3.113     1.669    -3.886  N    
     18 C           3.590     0.571    -3.254  C    
     19 C           3.313    -0.684    -3.857  C    
     20 N           2.308    -0.704    -4.787  N    
     21 C           3.749    -1.822    -3.352  C    
     22 N           3.964    -2.836    -2.862  N    
     23 C           4.482     0.745    -2.294  C    
     24 N           5.292     0.903    -1.498  N    
     25 N           1.836     2.859    -5.465  N    
     26 C           2.053     3.104    -6.870  C    
     27 C           3.367     3.920    -7.043  C    
     28 C           3.326     5.213    -6.190  C    
     29 C           2.984     4.894    -4.714  C    
     30 C           1.702     4.028    -4.631  C    
     31 H          -0.924     1.752    -8.852  H    
     32 H          -2.405     1.225    -9.665  H    
     33 H          -0.836     0.995   -10.450  H    
     34 H          -1.775    -0.425    -7.886  H    
     35 H          -1.691    -1.159    -9.459  H    
     36 H          -0.383    -1.812   -11.203  H    
     37 H           1.332    -2.925   -12.521  H    
     38 H           3.594    -3.172   -11.644  H    
     39 H           4.160    -2.304    -9.420  H    
     40 H           2.997    -0.937    -7.244  H    
     41 H           2.146     2.176    -7.433  H    
     42 H           1.214     3.670    -7.293  H    
     43 H           4.215     3.308    -6.715  H    
     44 H           3.513     4.184    -8.091  H    
     45 H           4.296     5.714    -6.237  H    
     46 H           2.564     5.885    -6.596  H    
     47 H           3.817     4.343    -4.266  H    
     48 H           2.842     5.825    -4.163  H    
     49 H           0.839     4.620    -4.965  H    
     50 H           1.518     3.740    -3.592  H    
@<TRIPOS>BOND
     1    1    2 1
     2    2    3 1
     3    3   11 1
     4    3    4 1
     5    4    9 ar
     6    4    5 ar
     7    5    6 ar
     8    6    7 ar
     9    7    8 ar
    10    8    9 ar
    11    9   10 1
    12   10   11 1
    13   11   12 2
    14   12   13 1
    15   12   15 1
    16   13   14 3
    17   15   20 ar
    18   15   16 ar
    19   16   17 ar
    20   16   25 1
    21   17   18 ar
    22   18   19 ar
    23   18   23 1
    24   19   20 ar
    25   19   21 1
    26   21   22 3
    27   23   24 3
    28   25   30 1
    29   25   26 1
    30   26   27 1
    31   27   28 1
    32   28   29 1
    33   29   30 1
    34    1   31 1
    35    1   32 1
    36    1   33 1
    37    2   34 1
    38    2   35 1
    39    5   36 1
    40    6   37 1
    41    7   38 1
    42    8   39 1
    43   10   40 1
    44   26   41 1
    45   26   42 1
    46   27   43 1
    47   27   44 1
    48   28   45 1
    49   28   46 1
    50   29   47 1
    51   29   48 1
    52   30   49 1
    53   30   50 1
@<TRIPOS>MOLECULE
ZINC00973694
 30 32 0 0 0
SMALL
NO_CHARGES


@<TRIPOS>ATOM
      1 C           2.648    -0.476    -7.693  C    
      2 C           1.603     0.397    -7.350  C    
      3 C           1.305     0.669    -6.000  C    
      4 C           2.080     0.064    -4.974  C    
      5 C           3.114    -0.832    -5.344  C    
      6 C           3.422    -1.119    -6.697  C    
      7 N           4.430    -1.981    -7.028  N    
      8 O           4.728    -2.223    -8.169  O    
      9 O           5.148    -2.598    -6.127  O    
     10 C           1.855     0.281    -3.590  C    
     11 C           1.523     1.467    -2.933  C    
     12 C           1.457     1.183    -1.581  C    
     13 C           1.740    -0.173    -1.421  C    
     14 O           2.010    -0.685    -2.649  O    
     15 C           1.858    -0.919    -0.263  C    
     16 C           1.161    -0.794     0.884  C    
     17 C           0.043    -0.075     1.134  C    
     18 O          -0.658     0.494     0.311  O    
     19 N          -0.384    -0.197     2.365  N    
     20 C           0.360    -0.976     3.101  C    
     21 S          -0.048    -1.406     4.699  S    
     22 S           1.646    -1.699     2.259  S    
     23 Cl         -0.058     1.642    -5.712  Cl   
     24 H           2.826    -0.647    -8.683  H    
     25 H           1.048     0.819    -8.098  H    
     26 H           3.668    -1.277    -4.610  H    
     27 H           1.405     2.393    -3.351  H    
     28 H           1.285     1.864    -0.836  H    
     29 H           2.529    -1.651    -0.306  H    
     30 H          -1.205     0.209     2.682  H    
@<TRIPOS>BOND
     1    1    6 ar
     2    1    2 ar
     3    2    3 ar
     4    3    4 ar
     5    3   23 1
     6    4    5 ar
     7    4   10 1
     8    5    6 ar
     9    6    7 1
    10    7    8 2
    11    7    9 1
    12   10   14 1
    13   10   11 2
    14   11   12 1
    15   12   13 2
    16   13   14 1
    17   13   15 1
    18   15   16 2
    19   16   22 1
    20   16   17 1
    21   17   18 2
    22   17   19 1
    23   19   20 1
    24   20   21 2
    25   20   22 1
    26    1   24 1
    27    2   25 1
    28    5   26 1
    29   11   27 1
    30   12   28 1
    31   15   29 1
    32   19   30 1
@<TRIPOS>MOLECULE
ZINC00987804
 21 21 0 0 0
SMALL
NO_CHARGES


@<TRIPOS>ATOM
      1 C          -0.642    -7.597    -0.174  C    
      2 O           0.301    -6.719    -0.786  O    
      3 C           0.836    -5.591    -0.248  C    
      4 O           0.474    -5.209     1.001  O    
      5 C           1.765    -4.817    -0.976  C    
      6 C           2.182    -5.164    -2.280  C    
      7 C           3.110    -4.350    -2.952  C    
      8 C           3.618    -3.198    -2.327  C    
      9 C           3.187    -2.874    -1.026  C    
     10 N           2.289    -3.693    -0.420  N    
     11 S           3.820    -1.445    -0.251  S    
     12 C           2.969    -1.494     1.343  C    
     13 H          -0.225    -8.022     0.741  H    
     14 H          -0.866    -8.404    -0.872  H    
     15 H          -1.565    -7.060     0.058  H    
     16 H           1.823    -5.998    -2.748  H    
     17 H           3.415    -4.596    -3.895  H    
     18 H           4.292    -2.609    -2.822  H    
     19 H           1.891    -1.445     1.193  H    
     20 H           3.286    -0.634     1.932  H    
     21 H           3.229    -2.408     1.878  H    
@<TRIPOS>BOND
     1    1    2 1
     2    2    3 1
     3    3    4 2
     4    3    5 1
     5    5   10 ar
     6    5    6 ar
     7    6    7 ar
     8    7    8 ar
     9    8    9 ar
    10    9   10 ar
    11    9   11 1
    12   11   12 1
    13    1   13 1
    14    1   14 1
    15    1   15 1
    16    6   16 1
    17    7   17 1
    18    8   18 1
    19   12   19 1
    20   12   20 1
    21   12   21 1
@<TRIPOS>MOLECULE
ZINC00988090
 35 38 0 0 0
SMALL
NO_CHARGES


@<TRIPOS>ATOM
      1 C          -0.107    -6.471    -3.595  C    
      2 C           0.259    -7.124    -4.783  C    
      3 C           1.157    -6.521    -5.698  C    
      4 C           1.547    -7.156    -6.906  C    
      5 C           2.448    -6.517    -7.777  C    
      6 C           2.962    -5.249    -7.472  C    
      7 C           2.589    -4.586    -6.281  C    
      8 C           1.687    -5.230    -5.388  C    
      9 C           1.321    -4.565    -4.182  C    
     10 C           0.420    -5.203    -3.297  C    
     11 C           1.867    -3.297    -3.921  C    
     12 O           1.527    -2.691    -2.912  O    
     13 N           2.727    -2.721    -4.784  N    
     14 C           3.080    -3.316    -5.939  C    
     15 O           3.854    -2.751    -6.707  O    
     16 N           3.209    -1.512    -4.530  N    
     17 C           4.124    -1.213    -3.608  C    
     18 O           4.587    -2.138    -2.944  O    
     19 C           4.599     0.094    -3.415  C    
     20 C           4.079     1.200    -4.139  C    
     21 C           4.586     2.496    -3.925  C    
     22 N           5.576     2.694    -3.021  N    
     23 C           6.106     1.680    -2.297  C    
     24 C           5.631     0.366    -2.477  C    
     25 Cl          0.991    -8.691    -7.382  Cl   
     26 H          -0.758    -6.917    -2.943  H    
     27 H          -0.142    -8.047    -4.967  H    
     28 H           2.734    -6.969    -8.645  H    
     29 H           3.614    -4.818    -8.132  H    
     30 H           0.135    -4.748    -2.429  H    
     31 H           2.925    -0.801    -5.126  H    
     32 H           3.331     1.088    -4.824  H    
     33 H           4.215     3.290    -4.450  H    
     34 H           6.855     1.879    -1.630  H    
     35 H           6.049    -0.383    -1.921  H    
@<TRIPOS>BOND
     1    1   10 ar
     2    1    2 ar
     3    2    3 ar
     4    3    8 ar
     5    3    4 ar
     6    4    5 ar
     7    4   25 1
     8    5    6 ar
     9    6    7 ar
    10    7   14 1
    11    7    8 ar
    12    8    9 ar
    13    9   10 ar
    14    9   11 1
    15   11   12 2
    16   11   13 1
    17   13   14 1
    18   13   16 1
    19   14   15 2
    20   16   17 1
    21   17   18 2
    22   17   19 1
    23   19   24 ar
    24   19   20 ar
    25   20   21 ar
    26   21   22 ar
    27   22   23 ar
    28   23   24 ar
    29    1   26 1
    30    2   27 1
    31    5   28 1
    32    6   29 1
    33   10   30 1
    34   16   31 1
    35   20   32 1
    36   21   33 1
    37   23   34 1
    38   24   35 1
@<TRIPOS>MOLECULE
ZINC01013883
 35 37 0 0 0
SMALL
NO_CHARGES


@<TRIPOS>ATOM
      1 C           1.771     3.519    -6.478  C    
      2 O           1.574     2.517    -5.466  O    
      3 C           2.723     2.191    -4.798  C    
      4 C           3.106     2.906    -3.647  C    
      5 C           4.278     2.554    -2.956  C    
      6 C           5.060     1.471    -3.398  C    
      7 C           4.666     0.706    -4.521  C    
      8 C           3.500     1.095    -5.226  C    
      9 C           5.466    -0.354    -4.941  C    
     10 C           5.072    -1.585    -5.329  C    
     11 C           3.856    -2.168    -5.220  C    
     12 O           2.936    -1.690    -4.564  O    
     13 N           3.791    -3.383    -5.745  N    
     14 C           4.962    -3.765    -6.243  C    
     15 S           5.280    -5.184    -7.131  S    
     16 S           6.220    -2.648    -6.012  S    
     17 C           2.660    -4.167    -5.724  C    
     18 C           2.624    -5.362    -4.968  C    
     19 C           1.461    -6.152    -4.935  C    
     20 C           0.319    -5.756    -5.655  C    
     21 C           0.340    -4.566    -6.410  C    
     22 C           1.506    -3.775    -6.440  C    
     23 Cl         -1.032    -4.091    -7.280  Cl   
     24 H           2.109     4.463    -6.040  H    
     25 H           0.813     3.697    -6.970  H    
     26 H           2.490     3.189    -7.235  H    
     27 H           2.538     3.689    -3.317  H    
     28 H           4.561     3.084    -2.129  H    
     29 H           5.908     1.231    -2.875  H    
     30 H           3.213     0.590    -6.068  H    
     31 H           6.444    -0.177    -4.933  H    
     32 H           3.444    -5.657    -4.433  H    
     33 H           1.443    -7.013    -4.385  H    
     34 H          -0.522    -6.336    -5.626  H    
     35 H           1.520    -2.912    -6.991  H    
@<TRIPOS>BOND
     1    1    2 1
     2    2    3 1
     3    3    8 ar
     4    3    4 ar
     5    4    5 ar
     6    5    6 ar
     7    6    7 ar
     8    7    8 ar
     9    7    9 1
    10    9   10 2
    11   10   16 1
    12   10   11 1
    13   11   12 2
    14   11   13 1
    15   13   14 1
    16   13   17 1
    17   14   15 2
    18   14   16 1
    19   17   22 ar
    20   17   18 ar
    21   18   19 ar
    22   19   20 ar
    23   20   21 ar
    24   21   22 ar
    25   21   23 1
    26    1   24 1
    27    1   25 1
    28    1   26 1
    29    4   27 1
    30    5   28 1
    31    6   29 1
    32    8   30 1
    33    9   31 1
    34   18   32 1
    35   19   33 1
    36   20   34 1
    37   22   35 1
@<TRIPOS>MOLECULE
ZINC01023831
 32 33 0 0 0
SMALL
NO_CHARGES


@<TRIPOS>ATOM
      1 C           5.780   -10.938    -2.757  C    
      2 C           6.118    -9.857    -1.798  C    
      3 C           7.334    -9.896    -1.078  C    
      4 C           7.666    -8.888    -0.154  C    
      5 C           6.791    -7.801     0.092  C    
      6 C           5.580    -7.766    -0.643  C    
      7 C           5.248    -8.757    -1.593  C    
      8 N           4.048    -8.703    -2.221  N    
      9 C           3.415    -7.763    -2.963  C    
     10 C           2.033    -8.039    -3.360  C    
     11 C           1.586    -6.756    -4.079  C    
     12 C           2.887    -5.966    -4.313  C    
     13 N           3.881    -6.618    -3.524  N    
     14 C           5.237    -6.146    -3.494  C    
     15 N           7.094    -6.834     1.008  N    
     16 O           8.092    -6.864     1.682  O    
     17 O           6.314    -5.807     1.212  O    
     18 H           4.846   -11.413    -2.456  H    
     19 H           6.552   -11.706    -2.806  H    
     20 H           5.658   -10.515    -3.754  H    
     21 H           7.997   -10.665    -1.214  H    
     22 H           8.559    -8.966     0.344  H    
     23 H           4.904    -7.020    -0.461  H    
     24 H           2.009    -8.900    -4.033  H    
     25 H           1.401    -8.239    -2.490  H    
     26 H           1.071    -6.980    -5.015  H    
     27 H           0.910    -6.181    -3.436  H    
     28 H           3.165    -5.992    -5.370  H    
     29 H           2.765    -4.925    -4.001  H    
     30 H           5.478    -5.762    -2.502  H    
     31 H           5.395    -5.332    -4.207  H    
     32 H           5.926    -6.956    -3.753  H    
@<TRIPOS>BOND
     1    1    2 1
     2    2    7 ar
     3    2    3 ar
     4    3    4 ar
     5    4    5 ar
     6    5    6 ar
     7    5   15 1
     8    6    7 ar
     9    7    8 1
    10    8    9 2
    11    9   13 1
    12    9   10 1
    13   10   11 1
    14   11   12 1
    15   12   13 1
    16   13   14 1
    17   15   16 2
    18   15   17 1
    19    1   18 1
    20    1   19 1
    21    1   20 1
    22    3   21 1
    23    4   22 1
    24    6   23 1
    25   10   24 1
    26   10   25 1
    27   11   26 1
    28   11   27 1
    29   12   28 1
    30   12   29 1
    31   14   30 1
    32   14   31 1
    33   14   32 1
@<TRIPOS>MOLECULE
ZINC01061650
 42 45 0 0 0
SMALL
NO_CHARGES


@<TRIPOS>ATOM
      1 C           9.137    -0.942    -4.561  C    
      2 O           7.757    -0.583    -4.429  O    
      3 C           6.911    -0.989    -3.442  C    
      4 O           7.387    -1.795    -2.458  O    
      5 C           5.546    -0.590    -3.447  C    
      6 C           5.055     0.331    -4.404  C    
      7 C           3.703     0.719    -4.413  C    
      8 C           2.786     0.205    -3.465  C    
      9 C           3.279    -0.711    -2.505  C    
     10 C           4.628    -1.106    -2.500  C    
     11 C           1.346     0.619    -3.477  C    
     12 C           0.369    -0.606    -3.580  C    
     13 C          -0.176    -1.040    -2.300  C    
     14 O          -0.720    -2.128    -2.211  O    
     15 N          -0.203    -0.244    -1.242  N    
     16 C           0.310     1.014    -1.221  C    
     17 C           1.067     1.510    -2.310  C    
     18 C           1.584     2.824    -2.250  C    
     19 C           1.347     3.643    -1.131  C    
     20 C           0.601     3.136    -0.038  C    
     21 C           0.080     1.831    -0.093  C    
     22 O           0.312     3.923     1.059  O    
     23 C           1.155     5.081     1.239  C    
     24 C           1.374     5.806    -0.113  C    
     25 O           1.923     4.894    -1.089  O    
     26 H           9.700    -0.622    -3.684  H    
     27 H           9.543    -0.448    -5.442  H    
     28 H           9.232    -2.021    -4.684  H    
     29 H           5.677     0.736    -5.106  H    
     30 H           3.394     1.390    -5.118  H    
     31 H           2.652    -1.114    -1.808  H    
     32 H           4.927    -1.785    -1.797  H    
     33 H           1.155     1.221    -4.378  H    
     34 H          -0.480    -0.336    -4.213  H    
     35 H           0.876    -1.448    -4.064  H    
     36 H          -0.637    -0.573    -0.435  H    
     37 H           2.142     3.190    -3.024  H    
     38 H          -0.472     1.478     0.692  H    
     39 H           0.677     5.754     1.950  H    
     40 H           2.118     4.768     1.650  H    
     41 H           0.422     6.198    -0.479  H    
     42 H           2.065     6.639     0.018  H    
@<TRIPOS>BOND
     1    1    2 1
     2    2    3 1
     3    3    4 2
     4    3    5 1
     5    5   10 ar
     6    5    6 ar
     7    6    7 ar
     8    7    8 ar
     9    8    9 ar
    10    8   11 1
    11    9   10 ar
    12   11   17 1
    13   11   12 1
    14   12   13 1
    15   13   14 2
    16   13   15 1
    17   15   16 1
    18   16   21 ar
    19   16   17 ar
    20   17   18 ar
    21   18   19 ar
    22   19   25 1
    23   19   20 ar
    24   20   21 ar
    25   20   22 1
    26   22   23 1
    27   23   24 1
    28   24   25 1
    29    1   26 1
    30    1   27 1
    31    1   28 1
    32    6   29 1
    33    7   30 1
    34    9   31 1
    35   10   32 1
    36   11   33 1
    37   12   34 1
    38   12   35 1
    39   15   36 1
    40   18   37 1
    41   21   38 1
    42   23   39 1
    43   23   40 1
    44   24   41 1
    45   24   42 1
@<TRIPOS>MOLECULE
ZINC01063112
 35 37 0 0 0
SMALL
NO_CHARGES


@<TRIPOS>ATOM
      1 C          -1.433    -2.683     3.551  C    
      2 C          -0.580    -2.493     2.370  C    
      3 C          -0.138    -3.473     1.485  C    
      4 C           0.624    -2.835     0.518  C    
      5 C           0.651    -1.478     0.840  C    
      6 O          -0.107    -1.294     1.953  O    
      7 C           1.224    -0.420     0.155  C    
      8 C           2.299    -0.428    -0.658  C    
      9 C           3.242    -1.379    -0.826  C    
     10 O           3.437    -2.278    -0.015  O    
     11 N           4.079    -1.135    -1.824  N    
     12 C           3.818     0.029    -2.407  C    
     13 S           4.537     0.647    -3.823  S    
     14 S           2.584     0.925    -1.659  S    
     15 C           5.133    -1.955    -2.152  C    
     16 C           6.468    -1.517    -1.993  C    
     17 C           7.546    -2.375    -2.286  C    
     18 C           7.316    -3.689    -2.770  C    
     19 C           5.981    -4.119    -2.927  C    
     20 C           4.903    -3.268    -2.624  C    
     21 O           8.290    -4.619    -3.070  O    
     22 C           9.621    -4.187    -3.410  C    
     23 H          -0.909    -2.323     4.440  H    
     24 H          -1.683    -3.736     3.687  H    
     25 H          -2.358    -2.112     3.427  H    
     26 H          -0.352    -4.470     1.519  H    
     27 H           1.043    -3.288    -0.297  H    
     28 H           0.755     0.450     0.276  H    
     29 H           6.658    -0.575    -1.643  H    
     30 H           8.501    -2.036    -2.145  H    
     31 H           5.785    -5.063    -3.269  H    
     32 H           3.944    -3.608    -2.746  H    
     33 H           9.608    -3.434    -4.203  H    
     34 H          10.181    -5.052    -3.767  H    
     35 H          10.133    -3.789    -2.531  H    
@<TRIPOS>BOND
     1    1    2 1
     2    2    6 1
     3    2    3 2
     4    3    4 1
     5    4    5 2
     6    5    6 1
     7    5    7 1
     8    7    8 2
     9    8   14 1
    10    8    9 1
    11    9   10 2
    12    9   11 1
    13   11   12 1
    14   11   15 1
    15   12   13 2
    16   12   14 1
    17   15   20 ar
    18   15   16 ar
    19   16   17 ar
    20   17   18 ar
    21   18   19 ar
    22   18   21 1
    23   19   20 ar
    24   21   22 1
    25    1   23 1
    26    1   24 1
    27    1   25 1
    28    3   26 1
    29    4   27 1
    30    7   28 1
    31   16   29 1
    32   17   30 1
    33   19   31 1
    34   20   32 1
    35   22   33 1
    36   22   34 1
    37   22   35 1
@<TRIPOS>MOLECULE
ZINC01067463
 40 41 0 0 0
SMALL
NO_CHARGES


@<TRIPOS>ATOM
      1 C          -0.577    -2.104    -2.796  C    
      2 C          -1.387    -3.420    -2.609  C    
      3 C          -0.930    -4.231    -1.355  C    
      4 C           0.416    -4.990    -1.581  C    
      5 C           0.355    -5.824    -2.895  C    
      6 N          -0.088    -5.011    -4.001  N    
      7 C          -1.347    -4.323    -3.881  C    
      8 S           0.858    -4.822    -5.392  S    
      9 O           1.757    -6.116    -5.611  O    
     10 O          -0.073    -4.823    -6.682  O    
     11 C           1.906    -3.436    -5.329  C    
     12 C           1.751    -2.357    -6.228  C    
     13 C           2.600    -1.233    -6.141  C    
     14 C           3.588    -1.170    -5.139  C    
     15 C           3.732    -2.235    -4.222  C    
     16 C           2.902    -3.370    -4.333  C    
     17 O           4.683    -2.200    -3.240  O    
     18 C           4.237    -1.494    -2.065  C    
     19 F           4.365    -0.121    -5.063  F    
     20 C           0.779    -5.871    -0.356  C    
     21 H           0.483    -2.309    -2.952  H    
     22 H          -0.680    -1.468    -1.912  H    
     23 H          -0.953    -1.547    -3.659  H    
     24 H          -2.427    -3.116    -2.448  H    
     25 H          -0.834    -3.557    -0.497  H    
     26 H          -1.712    -4.959    -1.115  H    
     27 H           1.213    -4.247    -1.685  H    
     28 H           1.344    -6.249    -3.084  H    
     29 H          -0.345    -6.655    -2.776  H    
     30 H          -2.140    -5.071    -3.810  H    
     31 H          -1.560    -3.713    -4.764  H    
     32 H           1.028    -2.380    -6.957  H    
     33 H           2.486    -0.454    -6.802  H    
     34 H           3.023    -4.143    -3.677  H    
     35 H           4.028    -0.440    -2.292  H    
     36 H           5.040    -1.528    -1.324  H    
     37 H           3.340    -1.960    -1.629  H    
     38 H           0.860    -5.256     0.545  H    
     39 H           1.740    -6.364    -0.515  H    
     40 H           0.017    -6.637    -0.186  H    
@<TRIPOS>BOND
     1    1    2 1
     2    2    7 1
     3    2    3 1
     4    3    4 1
     5    4    5 1
     6    4   20 1
     7    5    6 1
     8    6    7 1
     9    6    8 1
    10    8    9 2
    11    8   10 2
    12    8   11 1
    13   11   16 ar
    14   11   12 ar
    15   12   13 ar
    16   13   14 ar
    17   14   15 ar
    18   14   19 1
    19   15   16 ar
    20   15   17 1
    21   17   18 1
    22    1   21 1
    23    1   22 1
    24    1   23 1
    25    2   24 1
    26    3   25 1
    27    3   26 1
    28    4   27 1
    29    5   28 1
    30    5   29 1
    31    7   30 1
    32    7   31 1
    33   12   32 1
    34   13   33 1
    35   16   34 1
    36   18   35 1
    37   18   36 1
    38   18   37 1
    39   20   38 1
    40   20   39 1
    41   20   40 1
@<TRIPOS>MOLECULE
ZINC01073145
 46 49 0 0 0
SMALL
NO_CHARGES


@<TRIPOS>ATOM
      1 C           4.326    -4.348     2.866  C    
      2 N           3.919    -3.599     1.692  N    
      3 C           3.638    -4.237     0.498  C    
      4 C           3.685    -5.575     0.097  C    
      5 N           3.326    -5.684    -1.203  N    
      6 C           3.048    -4.437    -1.665  C    
      7 C           3.242    -3.521    -0.623  C    
      8 C           3.155    -2.138    -0.521  C    
      9 O           2.851    -1.509    -1.528  O    
     10 N           3.440    -1.519     0.648  N    
     11 C           3.809    -2.248     1.732  C    
     12 O           4.063    -1.677     2.790  O    
     13 C           3.342    -0.067     0.701  C    
     14 C           2.671    -4.096    -2.984  C    
     15 C           1.382    -3.579    -3.238  C    
     16 C           0.978    -3.300    -4.557  C    
     17 C           1.859    -3.511    -5.646  C    
     18 C           3.141    -4.036    -5.384  C    
     19 C           3.547    -4.331    -4.065  C    
     20 O           1.547    -3.307    -6.971  O    
     21 C           0.583    -2.293    -7.321  C    
     22 C           3.252    -6.884    -1.879  C    
     23 C           4.286    -7.843    -1.752  C    
     24 C           4.226    -9.070    -2.444  C    
     25 C           3.124    -9.356    -3.270  C    
     26 C           2.083    -8.419    -3.403  C    
     27 C           2.145    -7.196    -2.704  C    
     28 F           3.063   -10.494    -3.905  F    
     29 H           5.322    -4.026     3.180  H    
     30 H           4.368    -5.428     2.718  H    
     31 H           3.624    -4.163     3.683  H    
     32 H           3.929    -6.362     0.698  H    
     33 H           4.024     0.380    -0.028  H    
     34 H           3.584     0.371     1.670  H    
     35 H           2.323     0.243     0.458  H    
     36 H           0.723    -3.426    -2.468  H    
     37 H           0.031    -2.952    -4.712  H    
     38 H           3.785    -4.213    -6.156  H    
     39 H           4.483    -4.714    -3.907  H    
     40 H          -0.423    -2.611    -7.045  H    
     41 H           0.615    -2.157    -8.405  H    
     42 H           0.818    -1.339    -6.844  H    
     43 H           5.106    -7.648    -1.174  H    
     44 H           4.983    -9.749    -2.342  H    
     45 H           1.273    -8.626    -3.991  H    
     46 H           1.363    -6.545    -2.791  H    
@<TRIPOS>BOND
     1    1    2 1
     2    2   11 1
     3    2    3 1
     4    3    7 1
     5    3    4 2
     6    4    5 1
     7    5    6 1
     8    5   22 1
     9    6    7 2
    10    6   14 1
    11    7    8 1
    12    8    9 2
    13    8   10 1
    14   10   11 1
    15   10   13 1
    16   11   12 2
    17   14   19 ar
    18   14   15 ar
    19   15   16 ar
    20   16   17 ar
    21   17   18 ar
    22   17   20 1
    23   18   19 ar
    24   20   21 1
    25   22   27 ar
    26   22   23 ar
    27   23   24 ar
    28   24   25 ar
    29   25   26 ar
    30   25   28 1
    31   26   27 ar
    32    1   29 1
    33    1   30 1
    34    1   31 1
    35    4   32 1
    36   13   33 1
    37   13   34 1
    38   13   35 1
    39   15   36 1
    40   16   37 1
    41   18   38 1
    42   19   39 1
    43   21   40 1
    44   21   41 1
    45   21   42 1
    46   23   43 1
    47   24   44 1
    48   26   45 1
    49   27   46 1
@<TRIPOS>MOLECULE
ZINC01077332
 34 36 0 0 0
SMALL
NO_CHARGES


@<TRIPOS>ATOM
      1 C           1.580   -11.286    -4.632  C    
      2 C           2.378   -11.401    -3.393  C    
      3 C           2.856   -12.641    -2.915  C    
      4 C           3.596   -12.564    -1.735  C    
      5 S           3.649   -10.914    -1.266  S    
      6 C           2.736   -10.298    -2.592  C    
      7 C           2.404    -8.861    -2.776  C    
      8 C           3.559    -8.006    -2.826  C    
      9 C           3.505    -7.094    -1.853  C    
     10 N           2.424    -7.299    -1.194  N    
     11 N           1.764    -8.279    -1.647  N    
     12 S           0.198    -8.650    -1.144  S    
     13 O          -0.018   -10.225    -1.122  O    
     14 O           0.014    -8.193     0.368  O    
     15 C          -1.068    -7.869    -2.158  C    
     16 C           4.404    -6.070    -1.595  C    
     17 C           5.669    -5.845    -2.163  C    
     18 C           6.347    -4.706    -1.696  C    
     19 C           5.642    -3.975    -0.739  C    
     20 S           4.149    -4.784    -0.474  S    
     21 H           0.606   -10.844    -4.403  H    
     22 H           1.415   -12.260    -5.102  H    
     23 H           2.104   -10.644    -5.346  H    
     24 H           2.689   -13.532    -3.384  H    
     25 H           4.028   -13.346    -1.241  H    
     26 H           1.798    -8.700    -3.670  H    
     27 H           4.264    -8.064    -3.529  H    
     28 H           2.140    -6.771    -0.473  H    
     29 H          -0.950    -6.787    -2.120  H    
     30 H          -2.057    -8.138    -1.788  H    
     31 H          -0.969    -8.205    -3.190  H    
     32 H           6.087    -6.469    -2.858  H    
     33 H           7.280    -4.433    -2.027  H    
     34 H           5.962    -3.117    -0.285  H    
@<TRIPOS>BOND
     1    1    2 1
     2    2    6 2
     3    2    3 1
     4    3    4 2
     5    4    5 1
     6    5    6 1
     7    6    7 1
     8    7   11 1
     9    7    8 1
    10    8    9 2
    11    9   16 1
    12    9   10 1
    13   10   11 1
    14   11   12 1
    15   12   13 2
    16   12   14 2
    17   12   15 1
    18   16   20 1
    19   16   17 2
    20   17   18 1
    21   18   19 2
    22   19   20 1
    23    1   21 1
    24    1   22 1
    25    1   23 1
    26    3   24 1
    27    4   25 1
    28    7   26 1
    29    8   27 1
    30   10   28 1
    31   15   29 1
    32   15   30 1
    33   15   31 1
    34   17   32 1
    35   18   33 1
    36   19   34 1
@<TRIPOS>MOLECULE
ZINC01093485
 29 30 0 0 0
SMALL
NO_CHARGES


@<TRIPOS>ATOM
      1 C           8.700    -1.106     2.051  C    
      2 C           8.023    -1.904     1.024  C    
      3 C           7.395    -3.155     1.113  C    
      4 C           6.911    -3.463    -0.162  C    
      5 C           7.255    -2.382    -0.981  C    
      6 O           7.921    -1.458    -0.245  O    
      7 C           7.025    -2.132    -2.311  C    
      8 N           6.490    -3.001    -3.161  N    
      9 C           6.240    -2.673    -4.451  C    
     10 C           5.740    -3.467    -5.486  C    
     11 C           5.805    -2.679    -6.646  C    
     12 C           6.151    -1.385    -6.233  C    
     13 O           6.427    -1.419    -4.919  O    
     14 C           6.242    -0.114    -6.970  C    
     15 C           5.502    -3.105    -8.027  C    
     16 C           5.602    -4.760    -5.402  C    
     17 N           5.572    -5.910    -5.371  N    
     18 H           9.728    -0.942     1.731  H    
     19 H           8.690    -1.593     3.021  H    
     20 H           8.198    -0.141     2.118  H    
     21 H           7.292    -3.734     1.929  H    
     22 H           6.401    -4.288    -0.432  H    
     23 H           7.312    -1.254    -2.612  H    
     24 H           7.020    -0.169    -7.729  H    
     25 H           6.497     0.689    -6.271  H    
     26 H           5.282     0.127    -7.427  H    
     27 H           6.163    -3.918    -8.333  H    
     28 H           5.625    -2.280    -8.728  H    
     29 H           4.469    -3.447    -8.070  H    
@<TRIPOS>BOND
     1    1    2 1
     2    2    6 1
     3    2    3 2
     4    3    4 1
     5    4    5 2
     6    5    6 1
     7    5    7 1
     8    7    8 2
     9    8    9 1
    10    9   13 1
    11    9   10 2
    12   10   11 1
    13   10   16 1
    14   11   12 2
    15   11   15 1
    16   12   13 1
    17   12   14 1
    18   16   17 3
    19    1   18 1
    20    1   19 1
    21    1   20 1
    22    3   21 1
    23    4   22 1
    24    7   23 1
    25   14   24 1
    26   14   25 1
    27   14   26 1
    28   15   27 1
    29   15   28 1
    30   15   29 1
@<TRIPOS>MOLECULE
ZINC01102099
 51 55 0 0 0
SMALL
NO_CHARGES


@<TRIPOS>ATOM
      1 C           2.775     5.654    -6.231  C    
      2 C           3.025     4.835    -5.016  C    
      3 C           3.083     5.356    -3.686  C    
      4 C           3.214     4.442    -2.604  C    
      5 N           3.397     3.116    -2.844  N    
      6 C           3.426     2.597    -4.094  C    
      7 C           3.240     3.453    -5.193  C    
      8 S           3.339     2.509    -6.628  S    
      9 C           3.629     1.023    -5.826  C    
     10 C           3.619     1.244    -4.444  C    
     11 C           3.818     0.082    -3.535  C    
     12 C           4.192    -1.186    -4.223  C    
     13 C           4.162    -1.259    -5.583  C    
     14 N           3.881    -0.187    -6.355  N    
     15 C           4.506    -2.474    -6.319  C    
     16 C           4.374    -3.754    -5.454  C    
     17 C           5.020    -3.529    -4.066  C    
     18 C           4.574    -2.282    -3.464  C    
     19 O           4.766    -2.170    -2.260  O    
     20 C           2.579    -0.090    -2.705  C    
     21 C           1.371    -0.534    -3.299  C    
     22 C           0.201    -0.658    -2.527  C    
     23 C           0.215    -0.330    -1.155  C    
     24 C           1.405     0.112    -0.534  C    
     25 C           2.583     0.216    -1.321  C    
     26 O           1.311     0.404     0.813  O    
     27 C           2.421     0.949     1.546  C    
     28 O          -0.929    -0.442    -0.430  O    
     29 N           3.186     4.817    -1.308  N    
     30 C           2.748     6.596    -3.439  C    
     31 N           2.316     7.632    -3.178  N    
     32 H           3.633     5.607    -6.901  H    
     33 H           2.591     6.701    -6.002  H    
     34 H           1.899     5.266    -6.749  H    
     35 H           4.668     0.356    -2.906  H    
     36 H           3.922    -0.265    -7.319  H    
     37 H           3.850    -2.574    -7.188  H    
     38 H           5.538    -2.386    -6.678  H    
     39 H           3.311    -3.997    -5.325  H    
     40 H           4.856    -4.594    -5.958  H    
     41 H           4.765    -4.373    -3.420  H    
     42 H           6.108    -3.495    -4.175  H    
     43 H           1.337    -0.767    -4.287  H    
     44 H          -0.654    -0.982    -2.974  H    
     45 H           3.448     0.530    -0.896  H    
     46 H           3.253     0.243     1.570  H    
     47 H           2.099     1.130     2.572  H    
     48 H           2.744     1.899     1.116  H    
     49 H          -1.608    -0.771    -1.060  H    
     50 H           3.270     4.150    -0.611  H    
     51 H           3.079     5.749    -1.074  H    
@<TRIPOS>BOND
     1    1    2 1
     2    2    7 ar
     3    2    3 ar
     4    3    4 ar
     5    3   30 1
     6    4    5 ar
     7    4   29 1
     8    5    6 ar
     9    6   10 1
    10    6    7 ar
    11    7    8 1
    12    8    9 1
    13    9   14 1
    14    9   10 2
    15   10   11 1
    16   11   12 1
    17   11   20 1
    18   12   18 1
    19   12   13 2
    20   13   14 1
    21   13   15 1
    22   15   16 1
    23   16   17 1
    24   17   18 1
    25   18   19 2
    26   20   25 ar
    27   20   21 ar
    28   21   22 ar
    29   22   23 ar
    30   23   24 ar
    31   23   28 1
    32   24   25 ar
    33   24   26 1
    34   26   27 1
    35   30   31 3
    36    1   32 1
    37    1   33 1
    38    1   34 1
    39   11   35 1
    40   14   36 1
    41   15   37 1
    42   15   38 1
    43   16   39 1
    44   16   40 1
    45   17   41 1
    46   17   42 1
    47   21   43 1
    48   22   44 1
    49   25   45 1
    50   27   46 1
    51   27   47 1
    52   27   48 1
    53   28   49 1
    54   29   50 1
    55   29   51 1
@<TRIPOS>MOLECULE
ZINC01107757
 35 37 0 0 0
SMALL
NO_CHARGES


@<TRIPOS>ATOM
      1 C           3.738     4.239    -4.406  C    
      2 C           3.527     2.796    -4.303  C    
      3 O           3.547     2.040    -5.428  O    
      4 O           3.370     2.218    -3.083  O    
      5 N           3.193     0.927    -2.857  N    
      6 C           4.333     0.189    -2.337  C    
      7 C           4.077    -1.274    -2.143  C    
      8 C           5.087    -2.165    -1.716  C    
      9 C           4.784    -3.518    -1.468  C    
     10 C           3.472    -3.988    -1.656  C    
     11 C           2.467    -3.116    -2.113  C    
     12 C           2.765    -1.763    -2.371  C    
     13 N           1.793    -0.929    -2.823  N    
     14 C           1.997     0.358    -3.056  C    
     15 O           1.036     1.006    -3.447  O    
     16 Br          6.111    -4.677    -0.881  Br   
     17 C           4.785     0.825    -1.058  C    
     18 C           3.931     0.846     0.075  C    
     19 C           4.337     1.461     1.273  C    
     20 C           5.603     2.066     1.355  C    
     21 C           6.465     2.052     0.245  C    
     22 C           6.059     1.435    -0.952  C    
     23 H           4.721     4.429    -4.835  H    
     24 H           3.688     4.709    -3.422  H    
     25 H           2.977     4.680    -5.047  H    
     26 H           5.116     0.260    -3.095  H    
     27 H           6.042    -1.829    -1.578  H    
     28 H           3.247    -4.966    -1.461  H    
     29 H           1.516    -3.471    -2.250  H    
     30 H           0.911    -1.294    -2.988  H    
     31 H           3.005     0.418     0.025  H    
     32 H           3.708     1.471     2.076  H    
     33 H           5.900     2.507     2.231  H    
     34 H           7.384     2.492     0.308  H    
     35 H           6.696     1.445    -1.752  H    
@<TRIPOS>BOND
     1    1    2 1
     2    2    3 2
     3    2    4 1
     4    4    5 1
     5    5   14 1
     6    5    6 1
     7    6    7 1
     8    6   17 1
     9    7   12 ar
    10    7    8 ar
    11    8    9 ar
    12    9   10 ar
    13    9   16 1
    14   10   11 ar
    15   11   12 ar
    16   12   13 1
    17   13   14 1
    18   14   15 2
    19   17   22 ar
    20   17   18 ar
    21   18   19 ar
    22   19   20 ar
    23   20   21 ar
    24   21   22 ar
    25    1   23 1
    26    1   24 1
    27    1   25 1
    28    6   26 1
    29    8   27 1
    30   10   28 1
    31   11   29 1
    32   13   30 1
    33   18   31 1
    34   19   32 1
    35   20   33 1
    36   21   34 1
    37   22   35 1
@<TRIPOS>MOLECULE
ZINC01149520
 24 25 0 0 0
SMALL
NO_CHARGES


@<TRIPOS>ATOM
      1 C          -0.688    -5.656    -2.577  C    
      2 C          -1.197    -4.414    -2.175  C    
      3 C          -0.509    -3.233    -2.509  C    
      4 C           0.694    -3.272    -3.263  C    
      5 C           1.193    -4.537    -3.703  C    
      6 C           0.498    -5.713    -3.326  C    
      7 C           2.362    -4.681    -4.506  C    
      8 O           2.727    -3.749    -5.413  O    
      9 N           1.393    -2.136    -3.548  N    
     10 C           1.088    -0.777    -3.224  C    
     11 C           1.487    -0.423    -1.884  C    
     12 O           1.003    -0.921    -0.877  O    
     13 N           2.422     0.490    -1.800  N    
     14 C           2.843     0.940    -2.954  C    
     15 O           3.711     1.792    -3.049  O    
     16 S           2.067     0.284    -4.317  S    
     17 O           3.062    -5.841    -4.541  O    
     18 H          -1.182    -6.515    -2.331  H    
     19 H          -2.065    -4.369    -1.633  H    
     20 H          -0.900    -2.349    -2.185  H    
     21 H           0.828    -6.632    -3.624  H    
     22 H           2.216    -2.262    -4.040  H    
     23 H           0.032    -0.547    -3.396  H    
     24 H           2.776     0.799    -0.949  H    
@<TRIPOS>BOND
     1    1    6 ar
     2    1    2 ar
     3    2    3 ar
     4    3    4 ar
     5    4    5 ar
     6    4    9 1
     7    5    6 ar
     8    5    7 1
     9    7    8 2
    10    7   17 1
    11    9   10 1
    12   10   16 1
    13   10   11 1
    14   11   12 2
    15   11   13 1
    16   13   14 1
    17   14   15 2
    18   14   16 1
    19    1   18 1
    20    2   19 1
    21    3   20 1
    22    6   21 1
    23    9   22 1
    24   10   23 1
    25   13   24 1
@<TRIPOS>MOLECULE
ZINC01151582
 37 39 0 0 0
SMALL
NO_CHARGES


@<TRIPOS>ATOM
      1 C           0.367    -0.846    -1.849  C    
      2 C           1.835    -0.863    -2.089  C    
      3 C           2.627    -1.643    -1.212  C    
      4 C           4.018    -1.722    -1.358  C    
      5 C           4.667    -1.032    -2.402  C    
      6 C           3.881    -0.224    -3.254  C    
      7 C           2.468    -0.125    -3.142  C    
      8 N           1.805     0.673    -4.042  N    
      9 O           0.609     0.829    -4.064  O    
     10 O           2.412     1.331    -4.997  O    
     11 C           6.054    -1.090    -2.499  C    
     12 C           6.799    -1.178    -3.623  C    
     13 C           8.132    -1.032    -3.673  C    
     14 O           8.904    -0.798    -2.755  O    
     15 N           8.510    -1.130    -4.919  N    
     16 N           7.494    -1.388    -5.684  N    
     17 C           6.428    -1.437    -4.896  C    
     18 O           5.342    -1.891    -5.226  O    
     19 C           7.601    -1.621    -7.038  C    
     20 C           8.816    -2.102    -7.592  C    
     21 C           8.947    -2.338    -8.969  C    
     22 C           7.865    -2.095    -9.831  C    
     23 C           6.653    -1.607    -9.305  C    
     24 C           6.527    -1.369    -7.927  C    
     25 Cl          8.018    -2.374   -11.490  Cl   
     26 H           0.041     0.177    -1.646  H    
     27 H           0.064    -1.463    -0.999  H    
     28 H          -0.154    -1.225    -2.731  H    
     29 H           2.198    -2.175    -0.449  H    
     30 H           4.551    -2.295    -0.699  H    
     31 H           4.365     0.325    -3.966  H    
     32 H           6.545    -1.064    -1.635  H    
     33 H           9.428    -1.046    -5.223  H    
     34 H           9.617    -2.300    -6.990  H    
     35 H           9.833    -2.690    -9.337  H    
     36 H           5.862    -1.413    -9.924  H    
     37 H           5.645    -0.987    -7.581  H    
@<TRIPOS>BOND
     1    1    2 1
     2    2    7 ar
     3    2    3 ar
     4    3    4 ar
     5    4    5 ar
     6    5    6 ar
     7    5   11 1
     8    6    7 ar
     9    7    8 1
    10    8    9 2
    11    8   10 1
    12   11   12 2
    13   12   17 1
    14   12   13 1
    15   13   14 2
    16   13   15 1
    17   15   16 1
    18   16   17 1
    19   16   19 1
    20   17   18 2
    21   19   24 ar
    22   19   20 ar
    23   20   21 ar
    24   21   22 ar
    25   22   23 ar
    26   22   25 1
    27   23   24 ar
    28    1   26 1
    29    1   27 1
    30    1   28 1
    31    3   29 1
    32    4   30 1
    33    6   31 1
    34   11   32 1
    35   15   33 1
    36   20   34 1
    37   21   35 1
    38   23   36 1
    39   24   37 1
@<TRIPOS>MOLECULE
ZINC01180378
 47 49 0 0 0
SMALL
NO_CHARGES


@<TRIPOS>ATOM
      1 C           7.453    -5.664    -7.549  C    
      2 C           6.876    -5.089    -6.308  C    
      3 C           7.157    -5.706    -5.067  C    
      4 C           6.643    -5.186    -3.866  C    
      5 C           5.812    -4.045    -3.869  C    
      6 C           5.523    -3.435    -5.113  C    
      7 C           6.041    -3.936    -6.332  C    
      8 C           5.703    -3.237    -7.600  C    
      9 N           5.309    -3.516    -2.686  N    
     10 C           5.548    -2.227    -2.343  C    
     11 O           6.389    -1.580    -2.961  O    
     12 C           4.937    -1.646    -1.238  C    
     13 C           4.712    -0.315    -1.099  C    
     14 C           4.911     0.665    -2.070  C    
     15 C           5.933     1.611    -1.833  C    
     16 C           6.199     2.625    -2.772  C    
     17 C           5.450     2.731    -3.956  C    
     18 C           4.420     1.787    -4.187  C    
     19 C           4.123     0.766    -3.254  C    
     20 C           2.962    -0.133    -3.509  C    
     21 O           5.807     3.748    -4.810  O    
     22 C           4.883     4.220    -5.814  C    
     23 C           4.412    -2.540    -0.323  C    
     24 O           4.067    -2.224     0.809  O    
     25 N           4.191    -3.802    -0.671  N    
     26 C           4.584    -4.284    -1.848  C    
     27 O           4.278    -5.447    -2.081  O    
     28 H           6.650    -5.953    -8.231  H    
     29 H           8.060    -6.552    -7.357  H    
     30 H           8.089    -4.922    -8.038  H    
     31 H           7.755    -6.538    -5.024  H    
     32 H           6.886    -5.647    -2.983  H    
     33 H           4.925    -2.605    -5.117  H    
     34 H           6.616    -2.887    -8.083  H    
     35 H           5.055    -2.371    -7.446  H    
     36 H           5.183    -3.923    -8.272  H    
     37 H           4.345     0.024    -0.236  H    
     38 H           6.511     1.569    -0.984  H    
     39 H           6.949     3.296    -2.585  H    
     40 H           3.871     1.853    -5.046  H    
     41 H           3.294    -1.162    -3.626  H    
     42 H           2.413     0.140    -4.413  H    
     43 H           2.263    -0.081    -2.670  H    
     44 H           4.738     3.463    -6.588  H    
     45 H           5.299     5.111    -6.279  H    
     46 H           3.917     4.480    -5.368  H    
     47 H           3.735    -4.389    -0.047  H    
@<TRIPOS>BOND
     1    1    2 1
     2    2    7 ar
     3    2    3 ar
     4    3    4 ar
     5    4    5 ar
     6    5    6 ar
     7    5    9 1
     8    6    7 ar
     9    7    8 1
    10    9   26 1
    11    9   10 1
    12   10   11 2
    13   10   12 1
    14   12   13 2
    15   12   23 1
    16   13   14 1
    17   14   19 ar
    18   14   15 ar
    19   15   16 ar
    20   16   17 ar
    21   17   18 ar
    22   17   21 1
    23   18   19 ar
    24   19   20 1
    25   21   22 1
    26   23   24 2
    27   23   25 1
    28   25   26 1
    29   26   27 2
    30    1   28 1
    31    1   29 1
    32    1   30 1
    33    3   31 1
    34    4   32 1
    35    6   33 1
    36    8   34 1
    37    8   35 1
    38    8   36 1
    39   13   37 1
    40   15   38 1
    41   16   39 1
    42   18   40 1
    43   20   41 1
    44   20   42 1
    45   20   43 1
    46   22   44 1
    47   22   45 1
    48   22   46 1
    49   25   47 1
@<TRIPOS>MOLECULE
ZINC01180629
 42 45 0 0 0
SMALL
NO_CHARGES


@<TRIPOS>ATOM
      1 C           7.996   -12.057   -11.131  C    
      2 C           6.739   -11.923   -10.405  C    
      3 O           5.773   -11.618   -11.096  O    
      4 C           6.578   -12.070    -9.016  C    
      5 C           7.421   -12.910    -8.247  C    
      6 C           7.251   -13.030    -6.859  C    
      7 C           6.230   -12.323    -6.213  C    
      8 C           5.338   -11.487    -6.929  C    
      9 C           5.536   -11.390    -8.334  C    
     10 N           4.336   -10.810    -6.273  N    
     11 C           3.044   -10.517    -6.870  C    
     12 N           2.721    -9.132    -6.777  N    
     13 C           3.166    -8.405    -5.729  C    
     14 N           3.992    -8.924    -4.806  N    
     15 C           4.231    -8.064    -3.829  C    
     16 O           4.875    -8.387    -2.836  O    
     17 C           3.622    -6.859    -3.987  C    
     18 C           3.636    -5.791    -3.164  C    
     19 C           4.453    -5.599    -2.057  C    
     20 C           5.863    -5.709    -2.150  C    
     21 C           6.657    -5.494    -1.008  C    
     22 N           6.064    -5.165     0.170  N    
     23 C           4.718    -5.033     0.304  C    
     24 C           3.884    -5.231    -0.813  C    
     25 S           2.682    -6.778    -5.416  S    
     26 C           4.508   -10.272    -4.927  C    
     27 H           7.933   -12.900   -11.821  H    
     28 H           8.854   -12.209   -10.475  H    
     29 H           8.191   -11.149   -11.708  H    
     30 H           8.156   -13.464    -8.692  H    
     31 H           7.861   -13.648    -6.323  H    
     32 H           6.105   -12.472    -5.209  H    
     33 H           4.949   -10.745    -8.867  H    
     34 H           2.933   -10.832    -7.906  H    
     35 H           2.289   -11.066    -6.301  H    
     36 H           2.986    -5.061    -3.350  H    
     37 H           6.317    -5.930    -3.042  H    
     38 H           7.675    -5.579    -1.061  H    
     39 H           4.322    -4.786     1.216  H    
     40 H           2.870    -5.120    -0.708  H    
     41 H           3.988   -10.912    -4.211  H    
     42 H           5.566   -10.247    -4.650  H    
@<TRIPOS>BOND
     1    1    2 1
     2    2    3 2
     3    2    4 1
     4    4    9 ar
     5    4    5 ar
     6    5    6 ar
     7    6    7 ar
     8    7    8 ar
     9    8    9 ar
    10    8   10 1
    11   10   26 1
    12   10   11 1
    13   11   12 1
    14   12   13 2
    15   13   25 1
    16   13   14 1
    17   14   15 1
    18   14   26 1
    19   15   16 2
    20   15   17 1
    21   17   18 2
    22   17   25 1
    23   18   19 1
    24   19   24 ar
    25   19   20 ar
    26   20   21 ar
    27   21   22 ar
    28   22   23 ar
    29   23   24 ar
    30    1   27 1
    31    1   28 1
    32    1   29 1
    33    5   30 1
    34    6   31 1
    35    7   32 1
    36    9   33 1
    37   11   34 1
    38   11   35 1
    39   18   36 1
    40   20   37 1
    41   21   38 1
    42   23   39 1
    43   24   40 1
    44   26   41 1
    45   26   42 1
@<TRIPOS>MOLECULE
ZINC01184633
 34 35 0 0 0
SMALL
NO_CHARGES


@<TRIPOS>ATOM
      1 C          -0.310    -6.477    -3.796  C    
      2 C          -0.931    -5.593    -4.908  C    
      3 C          -0.791    -4.084    -4.572  C    
      4 N           0.552    -3.774    -4.240  N    
      5 C           1.176    -4.487    -3.189  C    
      6 C           1.131    -6.016    -3.455  C    
      7 C           1.218    -2.870    -4.899  C    
      8 S           1.928    -3.309    -6.390  S    
      9 N           1.114    -1.635    -4.520  N    
     10 C           2.115    -0.659    -4.593  C    
     11 C           1.603     0.697    -4.043  C    
     12 C           2.817     1.642    -3.924  C    
     13 S           4.182     0.574    -3.449  S    
     14 O           5.431     0.783    -4.417  O    
     15 O           4.520     0.721    -1.902  O    
     16 C           3.385    -1.007    -3.777  C    
     17 H          -0.296    -7.522    -4.119  H    
     18 H          -0.930    -6.413    -2.899  H    
     19 H          -0.425    -5.794    -5.857  H    
     20 H          -1.988    -5.846    -5.028  H    
     21 H          -1.166    -3.502    -5.420  H    
     22 H          -1.431    -3.849    -3.717  H    
     23 H           2.222    -4.197    -3.037  H    
     24 H           0.648    -4.273    -2.255  H    
     25 H           1.495    -6.553    -2.576  H    
     26 H           1.795    -6.253    -4.290  H    
     27 H           0.345    -1.407    -4.032  H    
     28 H           2.394    -0.502    -5.643  H    
     29 H           0.848     1.130    -4.706  H    
     30 H           1.153     0.560    -3.054  H    
     31 H           3.038     2.101    -4.891  H    
     32 H           2.648     2.422    -3.179  H    
     33 H           3.116    -1.469    -2.822  H    
     34 H           4.051    -1.676    -4.323  H    
@<TRIPOS>BOND
     1    1    6 1
     2    1    2 1
     3    2    3 1
     4    3    4 1
     5    4    5 1
     6    4    7 1
     7    5    6 1
     8    7    8 2
     9    7    9 1
    10    9   10 1
    11   10   16 1
    12   10   11 1
    13   11   12 1
    14   12   13 1
    15   13   14 2
    16   13   15 2
    17   13   16 1
    18    1   17 1
    19    1   18 1
    20    2   19 1
    21    2   20 1
    22    3   21 1
    23    3   22 1
    24    5   23 1
    25    5   24 1
    26    6   25 1
    27    6   26 1
    28    9   27 1
    29   10   28 1
    30   11   29 1
    31   11   30 1
    32   12   31 1
    33   12   32 1
    34   16   33 1
    35   16   34 1
@<TRIPOS>MOLECULE
ZINC01201994
 40 43 0 0 0
SMALL
NO_CHARGES


@<TRIPOS>ATOM
      1 C           1.895    -2.741     3.961  C    
      2 C           2.498    -3.185     2.685  C    
      3 C           3.475    -2.410     2.015  C    
      4 C           4.037    -2.854     0.805  C    
      5 C           3.638    -4.084     0.211  C    
      6 C           2.647    -4.847     0.887  C    
      7 C           2.096    -4.412     2.107  C    
      8 C           4.191    -4.525    -0.996  C    
      9 O           3.605    -5.369    -1.666  O    
     10 N           5.382    -4.100    -1.407  N    
     11 N           6.010    -4.476    -2.506  N    
     12 C           7.235    -4.965    -2.474  C    
     13 O           7.893    -5.015    -1.436  O    
     14 C           7.754    -5.258    -3.690  C    
     15 C           8.775    -6.111    -3.957  C    
     16 C           9.519    -6.219    -5.126  C    
     17 C           9.625    -5.455    -6.311  C    
     18 C          10.541    -5.837    -7.315  C    
     19 C          11.370    -6.967    -7.133  C    
     20 C          11.294    -7.713    -5.943  C    
     21 C          10.376    -7.311    -4.959  C    
     22 N          10.158    -7.819    -3.751  N    
     23 C           9.238    -7.106    -3.146  C    
     24 O           8.783    -7.488    -2.078  O    
     25 Br         10.678    -4.832    -8.874  Br   
     26 S           6.755    -4.623    -4.926  S    
     27 C           5.587    -4.276    -3.746  C    
     28 S           4.210    -3.382    -4.199  S    
     29 H           0.810    -2.669     3.854  H    
     30 H           2.273    -1.764     4.276  H    
     31 H           2.124    -3.465     4.748  H    
     32 H           3.787    -1.515     2.404  H    
     33 H           4.735    -2.255     0.354  H    
     34 H           2.329    -5.744     0.508  H    
     35 H           1.397    -4.998     2.574  H    
     36 H           5.899    -3.577    -0.773  H    
     37 H           9.070    -4.611    -6.445  H    
     38 H          12.041    -7.232    -7.857  H    
     39 H          11.903    -8.521    -5.790  H    
     40 H          10.587    -8.613    -3.395  H    
@<TRIPOS>BOND
     1    1    2 1
     2    2    7 ar
     3    2    3 ar
     4    3    4 ar
     5    4    5 ar
     6    5    6 ar
     7    5    8 1
     8    6    7 ar
     9    8    9 2
    10    8   10 1
    11   10   11 1
    12   11   27 1
    13   11   12 1
    14   12   13 2
    15   12   14 1
    16   14   15 2
    17   14   26 1
    18   15   23 1
    19   15   16 1
    20   16   21 ar
    21   16   17 ar
    22   17   18 ar
    23   18   19 ar
    24   18   25 1
    25   19   20 ar
    26   20   21 ar
    27   21   22 1
    28   22   23 1
    29   23   24 2
    30   26   27 1
    31   27   28 2
    32    1   29 1
    33    1   30 1
    34    1   31 1
    35    3   32 1
    36    4   33 1
    37    6   34 1
    38    7   35 1
    39   10   36 1
    40   17   37 1
    41   19   38 1
    42   20   39 1
    43   22   40 1
@<TRIPOS>MOLECULE
ZINC01205458
 48 53 0 0 0
SMALL
NO_CHARGES


@<TRIPOS>ATOM
      1 C           3.935    -8.432    -3.363  C    
      2 C           4.203    -8.132    -4.724  C    
      3 C           3.374    -8.634    -5.760  C    
      4 C           3.489    -8.445    -7.168  C    
      5 C           2.538    -9.052    -8.037  C    
      6 C           1.475    -9.843    -7.538  C    
      7 C           1.362   -10.027    -6.151  C    
      8 C           2.295    -9.428    -5.328  C    
      9 C           1.998    -9.746    -4.015  C    
     10 C           2.831    -9.241    -3.000  C    
     11 C           0.881   -10.538    -4.075  C    
     12 O           0.315   -11.045    -3.120  O    
     13 N           0.516   -10.696    -5.339  N    
     14 S           4.768    -7.472    -7.854  S    
     15 O           6.148    -8.121    -7.401  O    
     16 O           4.676    -7.430    -9.442  O    
     17 N           4.651    -5.902    -7.247  N    
     18 C           5.495    -4.861    -7.495  C    
     19 C           6.641    -4.934    -8.333  C    
     20 C           7.461    -3.806    -8.546  C    
     21 C           7.125    -2.599    -7.915  C    
     22 C           6.003    -2.511    -7.091  C    
     23 C           5.180    -3.630    -6.870  C    
     24 C           5.941    -1.199    -6.641  C    
     25 C           7.048    -0.544    -7.186  C    
     26 O           7.750    -1.400    -7.970  O    
     27 C           7.364     0.878    -6.947  C    
     28 C           6.555     1.471    -5.757  C    
     29 C           5.074     0.999    -5.765  C    
     30 C           4.951    -0.552    -5.752  C    
     31 H           4.549    -8.061    -2.634  H    
     32 H           5.011    -7.548    -4.943  H    
     33 H           2.608    -8.925    -9.049  H    
     34 H           0.800   -10.274    -8.173  H    
     35 H           2.644    -9.457    -2.020  H    
     36 H          -0.242   -11.222    -5.638  H    
     37 H           3.897    -5.724    -6.663  H    
     38 H           6.892    -5.807    -8.798  H    
     39 H           8.283    -3.861    -9.150  H    
     40 H           4.361    -3.544    -6.264  H    
     41 H           8.431     0.978    -6.738  H    
     42 H           7.141     1.435    -7.860  H    
     43 H           7.018     1.156    -4.817  H    
     44 H           6.594     2.562    -5.799  H    
     45 H           4.554     1.413    -4.898  H    
     46 H           4.589     1.389    -6.663  H    
     47 H           3.943    -0.828    -6.071  H    
     48 H           5.103    -0.927    -4.738  H    
@<TRIPOS>BOND
     1    1   10 ar
     2    1    2 ar
     3    2    3 ar
     4    3    8 ar
     5    3    4 ar
     6    4    5 ar
     7    4   14 1
     8    5    6 ar
     9    6    7 ar
    10    7   13 1
    11    7    8 ar
    12    8    9 ar
    13    9   10 ar
    14    9   11 1
    15   11   12 2
    16   11   13 1
    17   14   15 2
    18   14   16 2
    19   14   17 1
    20   17   18 1
    21   18   23 ar
    22   18   19 ar
    23   19   20 ar
    24   20   21 ar
    25   21   26 1
    26   21   22 ar
    27   22   23 ar
    28   22   24 1
    29   24   30 1
    30   24   25 2
    31   25   26 1
    32   25   27 1
    33   27   28 1
    34   28   29 1
    35   29   30 1
    36    1   31 1
    37    2   32 1
    38    5   33 1
    39    6   34 1
    40   10   35 1
    41   13   36 1
    42   17   37 1
    43   19   38 1
    44   20   39 1
    45   23   40 1
    46   27   41 1
    47   27   42 1
    48   28   43 1
    49   28   44 1
    50   29   45 1
    51   29   46 1
    52   30   47 1
    53   30   48 1
@<TRIPOS>MOLECULE
ZINC01208429
 49 52 0 0 0
SMALL
NO_CHARGES


@<TRIPOS>ATOM
      1 C           4.100   -10.993    -6.663  C    
      2 C           3.093   -11.042    -5.475  C    
      3 C           3.780   -10.531    -4.166  C    
      4 C           2.799    -9.923    -3.099  C    
      5 N           2.036    -8.879    -3.825  N    
      6 C           1.309    -9.304    -4.946  C    
      7 C           1.803   -10.348    -5.787  C    
      8 C           0.998   -10.826    -6.852  C    
      9 C          -0.274   -10.282    -7.102  C    
     10 C          -0.774    -9.272    -6.268  C    
     11 C           0.001    -8.805    -5.193  C    
     12 C           2.056    -7.567    -3.491  C    
     13 O           2.170    -7.224    -2.322  O    
     14 C           1.914    -6.441    -4.420  C    
     15 N           3.011    -5.508    -4.305  N    
     16 C           4.267    -5.754    -4.668  C    
     17 O           4.694    -6.793    -5.160  O    
     18 C           5.034    -4.663    -4.389  C    
     19 C           6.406    -4.393    -4.557  C    
     20 C           6.906    -3.141    -4.136  C    
     21 C           6.041    -2.183    -3.556  C    
     22 C           4.666    -2.465    -3.399  C    
     23 C           4.181    -3.716    -3.827  C    
     24 C           2.940    -4.277    -3.807  C    
     25 O           1.944    -3.724    -3.355  O    
     26 C           3.707    -9.474    -1.893  C    
     27 C           1.826   -11.009    -2.517  C    
     28 H           3.697   -11.487    -7.549  H    
     29 H           5.028   -11.504    -6.393  H    
     30 H           4.336    -9.955    -6.918  H    
     31 H           2.839   -12.094    -5.305  H    
     32 H           4.351   -11.361    -3.729  H    
     33 H           4.500    -9.744    -4.430  H    
     34 H           1.317   -11.603    -7.435  H    
     35 H          -0.843   -10.640    -7.872  H    
     36 H          -1.713    -8.897    -6.427  H    
     37 H          -0.415    -8.112    -4.567  H    
     38 H           1.879    -6.774    -5.462  H    
     39 H           0.956    -5.948    -4.210  H    
     40 H           7.030    -5.091    -4.973  H    
     41 H           7.900    -2.924    -4.250  H    
     42 H           6.414    -1.280    -3.250  H    
     43 H           4.040    -1.773    -2.978  H    
     44 H           4.328   -10.302    -1.541  H    
     45 H           3.107    -9.136    -1.043  H    
     46 H           4.374    -8.662    -2.197  H    
     47 H           1.227   -11.492    -3.291  H    
     48 H           1.137   -10.545    -1.806  H    
     49 H           2.384   -11.790    -2.001  H    
@<TRIPOS>BOND
     1    1    2 1
     2    2    7 1
     3    2    3 1
     4    3    4 1
     5    4    5 1
     6    4   26 1
     7    4   27 1
     8    5    6 1
     9    5   12 1
    10    6   11 ar
    11    6    7 ar
    12    7    8 ar
    13    8    9 ar
    14    9   10 ar
    15   10   11 ar
    16   12   13 2
    17   12   14 1
    18   14   15 1
    19   15   24 1
    20   15   16 1
    21   16   17 2
    22   16   18 1
    23   18   23 ar
    24   18   19 ar
    25   19   20 ar
    26   20   21 ar
    27   21   22 ar
    28   22   23 ar
    29   23   24 1
    30   24   25 2
    31    1   28 1
    32    1   29 1
    33    1   30 1
    34    2   31 1
    35    3   32 1
    36    3   33 1
    37    8   34 1
    38    9   35 1
    39   10   36 1
    40   11   37 1
    41   14   38 1
    42   14   39 1
    43   19   40 1
    44   20   41 1
    45   21   42 1
    46   22   43 1
    47   26   44 1
    48   26   45 1
    49   26   46 1
    50   27   47 1
    51   27   48 1
    52   27   49 1
@<TRIPOS>MOLECULE
ZINC01225716
 37 39 0 0 0
SMALL
NO_CHARGES


@<TRIPOS>ATOM
      1 C           6.178    -4.087    -7.881  C    
      2 C           6.932    -5.092    -7.249  C    
      3 C           6.440    -5.721    -6.089  C    
      4 C           5.181    -5.354    -5.549  C    
      5 C           4.433    -4.341    -6.194  C    
      6 C           4.928    -3.709    -7.351  C    
      7 C           4.641    -6.014    -4.327  C    
      8 N           3.452    -6.815    -4.622  N    
      9 C           3.547    -7.976    -5.322  C    
     10 O           4.665    -8.381    -5.642  O    
     11 C           2.429    -8.764    -5.617  C    
     12 C           2.535    -9.881    -6.380  C    
     13 C           1.616   -10.916    -6.557  C    
     14 C           1.417   -11.461    -7.849  C    
     15 C           0.521   -12.527    -8.053  C    
     16 C          -0.178   -13.081    -6.962  C    
     17 C           0.031   -12.570    -5.668  C    
     18 C           0.931   -11.506    -5.464  C    
     19 Br         -1.360   -14.493    -7.225  Br   
     20 C           1.220    -8.267    -5.161  C    
     21 O           0.127    -8.729    -5.462  O    
     22 N           1.157    -7.133    -4.472  N    
     23 C           2.235    -6.415    -4.201  C    
     24 O           2.029    -5.377    -3.585  O    
     25 H           6.533    -3.636    -8.727  H    
     26 H           7.840    -5.367    -7.634  H    
     27 H           7.004    -6.453    -5.648  H    
     28 H           3.522    -4.053    -5.821  H    
     29 H           4.376    -2.980    -7.809  H    
     30 H           5.392    -6.663    -3.864  H    
     31 H           4.458    -5.228    -3.586  H    
     32 H           3.379   -10.007    -6.884  H    
     33 H           1.912   -11.072    -8.658  H    
     34 H           0.383   -12.902    -8.994  H    
     35 H          -0.464   -12.978    -4.870  H    
     36 H           1.086   -11.169    -4.509  H    
     37 H           0.290    -6.801    -4.191  H    
@<TRIPOS>BOND
     1    1    6 ar
     2    1    2 ar
     3    2    3 ar
     4    3    4 ar
     5    4    5 ar
     6    4    7 1
     7    5    6 ar
     8    7    8 1
     9    8   23 1
    10    8    9 1
    11    9   10 2
    12    9   11 1
    13   11   12 2
    14   11   20 1
    15   12   13 1
    16   13   18 ar
    17   13   14 ar
    18   14   15 ar
    19   15   16 ar
    20   16   17 ar
    21   16   19 1
    22   17   18 ar
    23   20   21 2
    24   20   22 1
    25   22   23 1
    26   23   24 2
    27    1   25 1
    28    2   26 1
    29    3   27 1
    30    5   28 1
    31    6   29 1
    32    7   30 1
    33    7   31 1
    34   12   32 1
    35   14   33 1
    36   15   34 1
    37   17   35 1
    38   18   36 1
    39   22   37 1
@<TRIPOS>MOLECULE
ZINC01362049
 44 46 0 0 0
SMALL
NO_CHARGES


@<TRIPOS>ATOM
      1 C          -0.846    -5.458    -3.871  C    
      2 C           0.505    -5.498    -3.269  C    
      3 C           0.960    -6.627    -2.553  C    
      4 C           2.243    -6.639    -1.984  C    
      5 C           3.089    -5.524    -2.133  C    
      6 C           2.680    -4.383    -2.873  C    
      7 C           1.366    -4.386    -3.412  C    
      8 N           3.584    -3.313    -2.986  N    
      9 C           4.631    -3.246    -2.138  C    
     10 O           5.389    -2.284    -2.104  O    
     11 C           4.846    -4.290    -1.148  C    
     12 O           4.344    -5.569    -1.584  O    
     13 C           3.395    -2.275    -4.004  C    
     14 C           2.579    -1.121    -3.599  C    
     15 O           2.303    -1.097    -2.407  O    
     16 N           2.111    -0.150    -4.424  N    
     17 C           2.348    -0.181    -5.867  C    
     18 C           1.009    -0.424    -6.610  C    
     19 C          -0.042     0.645    -6.223  C    
     20 C          -0.168     0.786    -4.683  C    
     21 C           1.233     0.969    -4.013  C    
     22 C           1.043     1.336    -2.512  C    
     23 H          -1.410    -4.621    -3.456  H    
     24 H          -1.408    -6.373    -3.684  H    
     25 H          -0.763    -5.324    -4.950  H    
     26 H           0.356    -7.448    -2.436  H    
     27 H           2.560    -7.461    -1.463  H    
     28 H           1.016    -3.563    -3.910  H    
     29 H           5.914    -4.415    -0.947  H    
     30 H           4.354    -4.005    -0.211  H    
     31 H           4.362    -1.897    -4.345  H    
     32 H           2.949    -2.746    -4.884  H    
     33 H           2.768     0.775    -6.191  H    
     34 H           3.061    -0.934    -6.201  H    
     35 H           1.173    -0.398    -7.688  H    
     36 H           0.633    -1.418    -6.351  H    
     37 H           0.256     1.609    -6.644  H    
     38 H          -1.012     0.380    -6.650  H    
     39 H          -0.813     1.644    -4.468  H    
     40 H          -0.650    -0.107    -4.279  H    
     41 H           1.675     1.883    -4.427  H    
     42 H           0.477     0.566    -1.984  H    
     43 H           0.499     2.280    -2.415  H    
     44 H           2.016     1.464    -2.031  H    
@<TRIPOS>BOND
     1    1    2 1
     2    2    7 ar
     3    2    3 ar
     4    3    4 ar
     5    4    5 ar
     6    5   12 1
     7    5    6 ar
     8    6    7 ar
     9    6    8 1
    10    8    9 1
    11    8   13 1
    12    9   10 2
    13    9   11 1
    14   11   12 1
    15   13   14 1
    16   14   15 2
    17   14   16 1
    18   16   21 1
    19   16   17 1
    20   17   18 1
    21   18   19 1
    22   19   20 1
    23   20   21 1
    24   21   22 1
    25    1   23 1
    26    1   24 1
    27    1   25 1
    28    3   26 1
    29    4   27 1
    30    7   28 1
    31   11   29 1
    32   11   30 1
    33   13   31 1
    34   13   32 1
    35   17   33 1
    36   17   34 1
    37   18   35 1
    38   18   36 1
    39   19   37 1
    40   19   38 1
    41   20   39 1
    42   20   40 1
    43   21   41 1
    44   22   42 1
    45   22   43 1
    46   22   44 1
@<TRIPOS>MOLECULE
ZINC01372353
 43 46 0 0 0
SMALL
NO_CHARGES


@<TRIPOS>ATOM
      1 C           8.005   -13.171    -2.369  C    
      2 S           6.339   -12.858    -1.761  S    
      3 O           6.256   -13.211    -0.212  O    
      4 O           5.339   -13.903    -2.421  O    
      5 N           5.791   -11.277    -2.026  N    
      6 C           5.114   -10.924    -3.243  C    
      7 C           5.899    -9.827    -4.009  C    
      8 N           6.283    -8.737    -3.131  N    
      9 C           6.976    -9.149    -1.916  C    
     10 C           6.163   -10.212    -1.135  C    
     11 C           5.984    -7.418    -3.381  C    
     12 C           5.757    -6.831    -4.657  C    
     13 C           5.872    -7.238    -5.983  C    
     14 N           5.558    -6.200    -6.770  N    
     15 N           5.264    -5.148    -6.059  N    
     16 C           5.406    -5.485    -4.753  C    
     17 N           5.313    -4.716    -3.637  N    
     18 C           5.553    -5.249    -2.417  C    
     19 N           5.879    -6.563    -2.319  N    
     20 C           4.927    -3.933    -6.614  C    
     21 C           4.150    -2.973    -5.909  C    
     22 C           3.826    -1.732    -6.484  C    
     23 C           4.257    -1.427    -7.789  C    
     24 C           5.011    -2.368    -8.515  C    
     25 C           5.338    -3.606    -7.934  C    
     26 H           8.707   -12.500    -1.871  H    
     27 H           8.040   -13.005    -3.444  H    
     28 H           8.286   -14.202    -2.155  H    
     29 H           4.972   -11.786    -3.902  H    
     30 H           4.120   -10.540    -2.987  H    
     31 H           6.797   -10.266    -4.454  H    
     32 H           5.240    -9.515    -4.813  H    
     33 H           7.935    -9.587    -2.203  H    
     34 H           7.211    -8.326    -1.237  H    
     35 H           5.256    -9.750    -0.735  H    
     36 H           6.755   -10.570    -0.287  H    
     37 H           6.188    -8.140    -6.329  H    
     38 H           5.488    -4.670    -1.582  H    
     39 H           3.790    -3.178    -4.974  H    
     40 H           3.270    -1.053    -5.960  H    
     41 H           4.019    -0.527    -8.209  H    
     42 H           5.325    -2.148    -9.466  H    
     43 H           5.894    -4.267    -8.479  H    
@<TRIPOS>BOND
     1    1    2 1
     2    2    3 2
     3    2    4 2
     4    2    5 1
     5    5   10 1
     6    5    6 1
     7    6    7 1
     8    7    8 1
     9    8    9 1
    10    8   11 1
    11    9   10 1
    12   11   19 ar
    13   11   12 ar
    14   12   16 ar
    15   12   13 1
    16   13   14 2
    17   14   15 1
    18   15   16 1
    19   15   20 1
    20   16   17 ar
    21   17   18 ar
    22   18   19 ar
    23   20   25 ar
    24   20   21 ar
    25   21   22 ar
    26   22   23 ar
    27   23   24 ar
    28   24   25 ar
    29    1   26 1
    30    1   27 1
    31    1   28 1
    32    6   29 1
    33    6   30 1
    34    7   31 1
    35    7   32 1
    36    9   33 1
    37    9   34 1
    38   10   35 1
    39   10   36 1
    40   13   37 1
    41   18   38 1
    42   21   39 1
    43   22   40 1
    44   23   41 1
    45   24   42 1
    46   25   43 1
@<TRIPOS>MOLECULE
ZINC01380414
 45 48 0 0 0
SMALL
NO_CHARGES


@<TRIPOS>ATOM
      1 C           0.688    -3.726    -2.349  C    
      2 C           1.595    -4.594    -3.124  C    
      3 N           1.749    -5.893    -2.809  N    
      4 C           2.621    -6.405    -3.681  C    
      5 C           3.110    -7.720    -3.769  C    
      6 C           4.036    -8.029    -4.786  C    
      7 C           4.453    -7.027    -5.688  C    
      8 C           3.949    -5.713    -5.580  C    
      9 C           3.019    -5.397    -4.561  C    
     10 N           2.366    -4.262    -4.199  N    
     11 C           2.451    -2.947    -4.813  C    
     12 C           1.931    -2.933    -6.283  C    
     13 C           2.108    -1.537    -6.940  C    
     14 N           3.486    -1.084    -6.809  N    
     15 C           3.955    -0.955    -5.434  C    
     16 C           3.874    -2.322    -4.703  C    
     17 C           4.255    -0.825    -7.884  C    
     18 O           3.826    -0.924    -9.027  O    
     19 C           5.587    -0.452    -7.825  C    
     20 C           6.583    -1.446    -7.687  C    
     21 C           7.943    -1.087    -7.615  C    
     22 C           8.319     0.267    -7.680  C    
     23 C           7.333     1.263    -7.816  C    
     24 C           5.971     0.910    -7.891  C    
     25 F           5.082     1.864    -8.005  F    
     26 F           9.580     0.598    -7.614  F    
     27 F           4.507    -9.242    -4.893  F    
     28 H           1.253    -2.902    -1.910  H    
     29 H           0.206    -4.282    -1.542  H    
     30 H          -0.087    -3.325    -3.002  H    
     31 H           2.798    -8.435    -3.109  H    
     32 H           5.126    -7.250    -6.427  H    
     33 H           4.267    -5.008    -6.244  H    
     34 H           1.794    -2.261    -4.270  H    
     35 H           2.471    -3.661    -6.887  H    
     36 H           0.873    -3.206    -6.296  H    
     37 H           1.765    -1.613    -7.975  H    
     38 H           1.447    -0.816    -6.448  H    
     39 H           4.982    -0.593    -5.345  H    
     40 H           3.328    -0.225    -4.911  H    
     41 H           4.129    -2.183    -3.649  H    
     42 H           4.621    -2.984    -5.142  H    
     43 H           6.328    -2.437    -7.634  H    
     44 H           8.654    -1.816    -7.515  H    
     45 H           7.609     2.248    -7.859  H    
@<TRIPOS>BOND
     1    1    2 1
     2    2   10 1
     3    2    3 2
     4    3    4 1
     5    4    9 ar
     6    4    5 ar
     7    5    6 ar
     8    6    7 ar
     9    6   27 1
    10    7    8 ar
    11    8    9 ar
    12    9   10 1
    13   10   11 1
    14   11   16 1
    15   11   12 1
    16   12   13 1
    17   13   14 1
    18   14   15 1
    19   14   17 1
    20   15   16 1
    21   17   18 2
    22   17   19 1
    23   19   24 ar
    24   19   20 ar
    25   20   21 ar
    26   21   22 ar
    27   22   23 ar
    28   22   26 1
    29   23   24 ar
    30   24   25 1
    31    1   28 1
    32    1   29 1
    33    1   30 1
    34    5   31 1
    35    7   32 1
    36    8   33 1
    37   11   34 1
    38   12   35 1
    39   12   36 1
    40   13   37 1
    41   13   38 1
    42   15   39 1
    43   15   40 1
    44   16   41 1
    45   16   42 1
    46   20   43 1
    47   21   44 1
    48   23   45 1
@<TRIPOS>MOLECULE
ZINC00028254
 34 35 0 0 0
SMALL
NO_CHARGES


@<TRIPOS>ATOM
      1 C           5.924   -10.131    -2.624  C    
      2 C           5.184    -9.165    -1.781  C    
      3 C           4.407    -8.134    -2.346  C    
      4 C           3.721    -7.239    -1.503  C    
      5 N           3.796    -7.346    -0.137  N    
      6 C           4.544    -8.347     0.426  C    
      7 C           5.248    -9.267    -0.375  C    
      8 C           3.079    -6.407     0.697  C    
      9 C           3.716    -4.997     0.685  C    
     10 O           3.000    -4.146     1.602  O    
     11 C           3.456    -2.857     1.622  C    
     12 C           4.500    -2.477     2.489  C    
     13 C           4.939    -1.140     2.529  C    
     14 C           4.327    -0.168     1.711  C    
     15 C           3.274    -0.542     0.853  C    
     16 C           2.837    -1.880     0.812  C    
     17 N           4.743     1.112     1.752  N    
     18 H           6.996   -10.063    -2.411  H    
     19 H           5.777    -9.943    -3.692  H    
     20 H           5.582   -11.147    -2.408  H    
     21 H           4.335    -8.028    -3.361  H    
     22 H           3.157    -6.504    -1.938  H    
     23 H           4.609    -8.445     1.442  H    
     24 H           5.802   -10.004     0.069  H    
     25 H           2.043    -6.335     0.358  H    
     26 H           3.038    -6.745     1.734  H    
     27 H           4.765    -5.083     0.985  H    
     28 H           3.670    -4.590    -0.329  H    
     29 H           4.940    -3.173     3.092  H    
     30 H           5.701    -0.878     3.157  H    
     31 H           2.821     0.157     0.254  H    
     32 H           2.068    -2.143     0.191  H    
     33 H           4.323     1.780     1.186  H    
     34 H           5.468     1.369     2.342  H    
@<TRIPOS>BOND
     1    1    2 1
     2    2    7 ar
     3    2    3 ar
     4    3    4 ar
     5    4    5 ar
     6    5    6 ar
     7    5    8 1
     8    6    7 ar
     9    8    9 1
    10    9   10 1
    11   10   11 1
    12   11   16 ar
    13   11   12 ar
    14   12   13 ar
    15   13   14 ar
    16   14   15 ar
    17   14   17 1
    18   15   16 ar
    19    1   18 1
    20    1   19 1
    21    1   20 1
    22    3   21 1
    23    4   22 1
    24    6   23 1
    25    7   24 1
    26    8   25 1
    27    8   26 1
    28    9   27 1
    29    9   28 1
    30   12   29 1
    31   13   30 1
    32   15   31 1
    33   16   32 1
    34   17   33 1
    35   17   34 1
@<TRIPOS>MOLECULE
ZINC00037102
 32 34 0 0 0
SMALL
NO_CHARGES


@<TRIPOS>ATOM
      1 C          -1.771     0.712    -1.609  C    
      2 C          -0.399     0.934    -1.581  C    
      3 C          -0.111     1.567    -0.370  C    
      4 O          -1.276     1.734     0.298  O    
      5 C          -2.304     1.215    -0.426  C    
      6 C          -3.655     1.301    -0.117  C    
      7 N          -4.114     2.095     0.827  N    
      8 C          -3.593     2.527     1.998  C    
      9 C          -2.645     1.948     2.898  C    
     10 C          -2.275     2.780     3.962  C    
     11 C          -2.887     4.053     3.952  C    
     12 S          -3.926     4.094     2.592  S    
     13 C          -2.582     5.149     4.871  C    
     14 C          -1.870     4.658     6.159  C    
     15 C          -0.767     3.614     5.836  C    
     16 C          -1.328     2.403     5.047  C    
     17 C          -2.401     0.666     2.846  C    
     18 N          -2.142    -0.448     2.797  N    
     19 N           1.088     1.974     0.094  N    
     20 O           2.097     1.857    -0.553  O    
     21 O           1.191     2.490     1.286  O    
     22 H          -2.289     0.309    -2.372  H    
     23 H           0.257     0.684    -2.300  H    
     24 H          -4.280     1.083    -0.826  H    
     25 H          -1.933     5.855     4.342  H    
     26 H          -3.501     5.675     5.145  H    
     27 H          -1.429     5.509     6.681  H    
     28 H          -2.605     4.200     6.827  H    
     29 H           0.016     4.100     5.246  H    
     30 H          -0.308     3.265     6.769  H    
     31 H          -1.843     1.726     5.735  H    
     32 H          -0.482     1.858     4.619  H    
@<TRIPOS>BOND
     1    1    5 2
     2    1    2 1
     3    2    3 2
     4    3    4 1
     5    3   19 1
     6    4    5 1
     7    5    6 1
     8    6    7 2
     9    7    8 1
    10    8   12 1
    11    8    9 2
    12    9   10 1
    13    9   17 1
    14   10   16 1
    15   10   11 2
    16   11   12 1
    17   11   13 1
    18   13   14 1
    19   14   15 1
    20   15   16 1
    21   17   18 3
    22   19   20 2
    23   19   21 1
    24    1   22 1
    25    2   23 1
    26    6   24 1
    27   13   25 1
    28   13   26 1
    29   14   27 1
    30   14   28 1
    31   15   29 1
    32   15   30 1
    33   16   31 1
    34   16   32 1
@<TRIPOS>MOLECULE
ZINC00042850
 39 40 0 0 0
SMALL
NO_CHARGES


@<TRIPOS>ATOM
      1 C           8.542     3.282     2.706  C    
      2 C           8.139     3.044     1.296  C    
      3 C           9.060     3.157     0.234  C    
      4 C           8.650     2.933    -1.093  C    
      5 C           7.312     2.588    -1.398  C    
      6 C           6.369     2.461    -0.335  C    
      7 C           6.800     2.711     0.995  C    
      8 N           5.058     2.184    -0.631  N    
      9 C           4.118     1.599     0.094  C    
     10 O           4.348     1.061     1.167  O    
     11 C           2.810     1.383    -0.491  C    
     12 C           1.946     2.513    -1.114  C    
     13 C           1.544     1.889     0.251  C    
     14 C           0.316     0.942     0.225  C    
     15 C           1.694     2.727     1.554  C    
     16 C           2.371     3.906    -1.177  C    
     17 C           1.522     4.947    -1.175  C    
     18 Cl          2.103     6.501    -1.307  Cl   
     19 Cl         -0.132     4.791    -1.051  Cl   
     20 C           6.989     2.371    -2.838  C    
     21 H           7.947     4.099     3.124  H    
     22 H           9.598     3.549     2.794  H    
     23 H           8.366     2.379     3.297  H    
     24 H          10.035     3.405     0.417  H    
     25 H           9.345     3.024    -1.842  H    
     26 H           6.125     2.685     1.763  H    
     27 H           4.782     2.430    -1.525  H    
     28 H           2.684     0.415    -0.986  H    
     29 H           1.357     2.172    -1.969  H    
     30 H           0.259     0.361    -0.696  H    
     31 H          -0.599     1.527     0.320  H    
     32 H           0.376     0.246     1.063  H    
     33 H           1.804     2.054     2.410  H    
     34 H           0.800     3.334     1.705  H    
     35 H           2.560     3.393     1.531  H    
     36 H           3.339     4.091    -1.302  H    
     37 H           7.126     3.307    -3.385  H    
     38 H           5.969     2.028    -3.009  H    
     39 H           7.659     1.615    -3.257  H    
@<TRIPOS>BOND
     1    1    2 1
     2    2    7 ar
     3    2    3 ar
     4    3    4 ar
     5    4    5 ar
     6    5    6 ar
     7    5   20 1
     8    6    7 ar
     9    6    8 1
    10    8    9 1
    11    9   10 2
    12    9   11 1
    13   11   13 1
    14   11   12 1
    15   12   13 1
    16   12   16 1
    17   13   14 1
    18   13   15 1
    19   16   17 2
    20   17   18 1
    21   17   19 1
    22    1   21 1
    23    1   22 1
    24    1   23 1
    25    3   24 1
    26    4   25 1
    27    7   26 1
    28    8   27 1
    29   11   28 1
    30   12   29 1
    31   14   30 1
    32   14   31 1
    33   14   32 1
    34   15   33 1
    35   15   34 1
    36   15   35 1
    37   16   36 1
    38   20   37 1
    39   20   38 1
    40   20   39 1
@<TRIPOS>MOLECULE
ZINC00049637
 26 27 0 0 0
SMALL
NO_CHARGES


@<TRIPOS>ATOM
      1 C           5.418    -9.792    -1.524  C    
      2 C           5.752    -9.549    -0.181  C    
      3 C           5.325    -8.365     0.447  C    
      4 C           4.558    -7.385    -0.246  C    
      5 C           4.237    -7.661    -1.605  C    
      6 C           4.656    -8.847    -2.234  C    
      7 C           4.156    -6.193     0.391  C    
      8 O           4.349    -6.066     1.597  O    
      9 C           3.582    -5.048    -0.318  C    
     10 N           3.272    -3.901     0.491  N    
     11 C           3.906    -2.714     0.488  C    
     12 C           3.288    -1.889     1.423  C    
     13 N           2.283    -2.595     1.969  N    
     14 C           2.279    -3.810     1.395  C    
     15 N           3.616    -0.617     1.742  N    
     16 O           3.002    -0.015     2.581  O    
     17 O           4.612    -0.008     1.158  O    
     18 H           5.729   -10.648    -1.984  H    
     19 H           6.305   -10.235     0.340  H    
     20 H           5.594    -8.223     1.425  H    
     21 H           3.687    -7.001    -2.164  H    
     22 H           4.412    -9.021    -3.211  H    
     23 H           4.291    -4.755    -1.098  H    
     24 H           2.658    -5.354    -0.814  H    
     25 H           4.705    -2.460    -0.097  H    
     26 H           1.615    -4.552     1.625  H    
@<TRIPOS>BOND
     1    1    6 ar
     2    1    2 ar
     3    2    3 ar
     4    3    4 ar
     5    4    5 ar
     6    4    7 1
     7    5    6 ar
     8    7    8 2
     9    7    9 1
    10    9   10 1
    11   10   14 1
    12   10   11 1
    13   11   12 2
    14   12   13 1
    15   12   15 1
    16   13   14 2
    17   15   16 2
    18   15   17 1
    19    1   18 1
    20    2   19 1
    21    3   20 1
    22    5   21 1
    23    6   22 1
    24    9   23 1
    25    9   24 1
    26   11   25 1
    27   14   26 1
@<TRIPOS>MOLECULE
ZINC00064088
 30 31 0 0 0
SMALL
NO_CHARGES


@<TRIPOS>ATOM
      1 C           7.816    -8.978     0.718  C    
      2 C           7.314   -10.289     0.749  C    
      3 C           5.932   -10.505     0.882  C    
      4 C           5.046    -9.413     0.993  C    
      5 C           5.539    -8.075     0.995  C    
      6 C           6.938    -7.886     0.841  C    
      7 C           4.676    -6.976     1.109  C    
      8 C           4.964    -5.822     1.747  C    
      9 C           4.121    -4.762     1.858  C    
     10 O           2.917    -4.911     1.682  O    
     11 N           4.616    -3.600     2.272  N    
     12 C           3.998    -2.388     2.472  C    
     13 C           2.831    -1.987     1.772  C    
     14 C           2.252    -0.725     1.993  C    
     15 C           2.833     0.165     2.912  C    
     16 C           4.007    -0.200     3.592  C    
     17 C           4.592    -1.465     3.376  C    
     18 Cl          6.003    -1.838     4.249  Cl   
     19 Cl          3.392    -9.796     1.162  Cl   
     20 H           8.817    -8.820     0.594  H    
     21 H           7.952   -11.081     0.662  H    
     22 H           5.580   -11.465     0.907  H    
     23 H           7.337    -6.945     0.791  H    
     24 H           3.766    -7.076     0.717  H    
     25 H           5.852    -5.742     2.195  H    
     26 H           5.557    -3.620     2.505  H    
     27 H           2.401    -2.596     1.075  H    
     28 H           1.407    -0.451     1.487  H    
     29 H           2.411     1.081     3.074  H    
     30 H           4.433     0.462     4.246  H    
@<TRIPOS>BOND
     1    1    6 ar
     2    1    2 ar
     3    2    3 ar
     4    3    4 ar
     5    4    5 ar
     6    4   19 1
     7    5    6 ar
     8    5    7 1
     9    7    8 2
    10    8    9 1
    11    9   10 2
    12    9   11 1
    13   11   12 1
    14   12   17 ar
    15   12   13 ar
    16   13   14 ar
    17   14   15 ar
    18   15   16 ar
    19   16   17 ar
    20   17   18 1
    21    1   20 1
    22    2   21 1
    23    3   22 1
    24    6   23 1
    25    7   24 1
    26    8   25 1
    27   11   26 1
    28   13   27 1
    29   14   28 1
    30   15   29 1
    31   16   30 1
@<TRIPOS>MOLECULE
ZINC00065776
 25 26 0 0 0
SMALL
NO_CHARGES


@<TRIPOS>ATOM
      1 C           3.801    -8.826     1.173  C    
      2 C           4.989    -9.035     1.900  C    
      3 C           5.660    -7.948     2.501  C    
      4 C           5.163    -6.643     2.296  C    
      5 C           3.954    -6.420     1.603  C    
      6 C           3.268    -7.529     1.041  C    
      7 N           3.538    -5.143     1.507  N    
      8 C           2.391    -4.653     1.065  C    
      9 C           2.191    -3.295     1.061  C    
     10 C           1.127    -2.628     1.697  C    
     11 C           1.191    -1.227     1.591  C    
     12 C           2.267    -0.727     0.815  C    
     13 S           3.173    -2.099     0.276  S    
     14 N           2.520     0.589     0.569  N    
     15 O           3.394     0.911    -0.199  O    
     16 O           1.766     1.537     1.072  O    
     17 C           6.874    -8.108     2.938  C    
     18 N           7.953    -8.249     3.305  N    
     19 H           3.321    -9.622     0.744  H    
     20 H           5.387    -9.983     1.927  H    
     21 H           5.686    -5.829     2.653  H    
     22 H           2.402    -7.412     0.510  H    
     23 H           1.623    -5.271     0.827  H    
     24 H           0.392    -3.106     2.247  H    
     25 H           0.497    -0.620     2.041  H    
@<TRIPOS>BOND
     1    1    6 ar
     2    1    2 ar
     3    2    3 ar
     4    3    4 ar
     5    3   17 1
     6    4    5 ar
     7    5    6 ar
     8    5    7 1
     9    7    8 2
    10    8    9 1
    11    9   13 1
    12    9   10 2
    13   10   11 1
    14   11   12 2
    15   12   13 1
    16   12   14 1
    17   14   15 2
    18   14   16 1
    19   17   18 3
    20    1   19 1
    21    2   20 1
    22    4   21 1
    23    6   22 1
    24    8   23 1
    25   10   24 1
    26   11   25 1
@<TRIPOS>MOLECULE
ZINC00071324
 25 25 0 0 0
SMALL
NO_CHARGES


@<TRIPOS>ATOM
      1 C          -6.823    10.271     3.118  C    
      2 C          -6.811     8.730     3.063  C    
      3 O          -5.487     8.262     2.767  O    
      4 C          -5.062     6.971     2.700  C    
      5 O          -5.948     5.987     2.982  O    
      6 C          -3.742     6.698     2.379  C    
      7 C          -3.296     5.481     1.962  C    
      8 C          -4.066     4.437     1.485  C    
      9 C          -4.894     4.584     0.350  C    
     10 C          -5.658     3.500    -0.097  C    
     11 N          -5.614     2.318     0.564  N    
     12 C          -4.841     2.139     1.662  C    
     13 C          -4.045     3.184     2.140  C    
     14 C          -2.854     7.500     2.854  C    
     15 N          -2.064     8.211     3.278  N    
     16 H          -6.135    10.621     3.890  H    
     17 H          -7.826    10.635     3.351  H    
     18 H          -6.514    10.684     2.156  H    
     19 H          -7.134     8.333     4.026  H    
     20 H          -7.508     8.387     2.294  H    
     21 H          -2.316     5.283     1.965  H    
     22 H          -4.927     5.460    -0.163  H    
     23 H          -6.250     3.581    -0.921  H    
     24 H          -4.842     1.234     2.126  H    
     25 H          -3.480     3.042     2.973  H    
@<TRIPOS>BOND
     1    1    2 1
     2    2    3 1
     3    3    4 1
     4    4    5 2
     5    4    6 1
     6    6    7 2
     7    6   14 1
     8    7    8 1
     9    8   13 ar
    10    8    9 ar
    11    9   10 ar
    12   10   11 ar
    13   11   12 ar
    14   12   13 ar
    15   14   15 3
    16    1   16 1
    17    1   17 1
    18    1   18 1
    19    2   19 1
    20    2   20 1
    21    7   21 1
    22    9   22 1
    23   10   23 1
    24   12   24 1
    25   13   25 1
@<TRIPOS>MOLECULE
ZINC00075955
 28 29 0 0 0
SMALL
NO_CHARGES


@<TRIPOS>ATOM
      1 C          -0.788     0.743     4.674  C    
      2 C          -1.415     1.537     3.505  C    
      3 C          -1.816     2.969     3.941  C    
      4 N          -0.475     1.570     2.425  N    
      5 C          -0.761     1.880     1.143  C    
      6 O          -2.031     2.153     0.756  O    
      7 O           0.254     1.778     0.246  O    
      8 C           0.300     2.060    -1.086  C    
      9 C          -0.379     3.008    -1.851  C    
     10 C          -1.309     4.026    -1.565  C    
     11 C          -1.768     4.848    -2.615  C    
     12 C          -1.288     4.659    -3.930  C    
     13 C          -0.342     3.650    -4.205  C    
     14 C           0.106     2.841    -3.147  C    
     15 O           1.034     1.862    -3.134  O    
     16 N           1.145     1.416    -1.910  N    
     17 H           0.120     1.234     5.036  H    
     18 H          -0.532    -0.265     4.343  H    
     19 H          -1.499     0.665     5.496  H    
     20 H          -2.311     0.992     3.194  H    
     21 H          -2.533     2.921     4.762  H    
     22 H          -2.280     3.508     3.112  H    
     23 H          -0.939     3.534     4.271  H    
     24 H           0.442     1.318     2.622  H    
     25 H          -1.631     4.202    -0.611  H    
     26 H          -2.441     5.594    -2.422  H    
     27 H          -1.614     5.270    -4.683  H    
     28 H           0.025     3.518    -5.149  H    
@<TRIPOS>BOND
     1    1    2 1
     2    2    3 1
     3    2    4 1
     4    4    5 1
     5    5    6 2
     6    5    7 1
     7    7    8 1
     8    8   16 2
     9    8    9 1
    10    9   14 ar
    11    9   10 ar
    12   10   11 ar
    13   11   12 ar
    14   12   13 ar
    15   13   14 ar
    16   14   15 1
    17   15   16 1
    18    1   17 1
    19    1   18 1
    20    1   19 1
    21    2   20 1
    22    3   21 1
    23    3   22 1
    24    3   23 1
    25    4   24 1
    26   10   25 1
    27   11   26 1
    28   12   27 1
    29   13   28 1
@<TRIPOS>MOLECULE
ZINC00078031
 35 36 0 0 0
SMALL
NO_CHARGES


@<TRIPOS>ATOM
      1 C           6.818    -7.918     0.877  C    
      2 C           5.554    -7.644     0.534  C    
      3 N           4.722    -8.535     0.161  N    
      4 N           3.574    -8.091    -0.148  N    
      5 C           3.519    -6.663     0.049  C    
      6 C           4.966    -6.337     0.518  C    
      7 C           3.158    -5.888    -1.188  C    
      8 C           3.737    -6.212    -2.444  C    
      9 C           3.409    -5.480    -3.600  C    
     10 C           2.508    -4.408    -3.496  C    
     11 N           1.966    -4.105    -2.287  N    
     12 C           2.253    -4.796    -1.155  C    
     13 O           2.626    -6.410     1.140  O    
     14 C           2.578    -8.884    -0.576  C    
     15 O           1.501    -8.366    -0.848  O    
     16 C           2.747   -10.316    -0.862  C    
     17 C           1.419   -11.129    -0.888  C    
     18 C           3.527   -10.511    -2.192  C    
     19 H           7.155    -8.853     0.852  H    
     20 H           7.437    -7.190     1.152  H    
     21 H           4.947    -9.441     0.123  H    
     22 H           4.991    -5.898     1.522  H    
     23 H           5.516    -5.691    -0.172  H    
     24 H           4.402    -6.989    -2.525  H    
     25 H           3.820    -5.723    -4.507  H    
     26 H           2.258    -3.852    -4.320  H    
     27 H           1.810    -4.504    -0.283  H    
     28 H           1.737    -6.676     0.818  H    
     29 H           3.342   -10.758    -0.057  H    
     30 H           0.856   -10.961     0.034  H    
     31 H           1.637   -12.197    -0.965  H    
     32 H           0.794   -10.840    -1.738  H    
     33 H           2.958   -10.105    -3.032  H    
     34 H           3.706   -11.575    -2.371  H    
     35 H           4.498   -10.009    -2.154  H    
@<TRIPOS>BOND
     1    1    2 2
     2    2    6 1
     3    2    3 1
     4    3    4 1
     5    4    5 1
     6    4   14 1
     7    5    6 1
     8    5    7 1
     9    5   13 1
    10    7   12 ar
    11    7    8 ar
    12    8    9 ar
    13    9   10 ar
    14   10   11 ar
    15   11   12 ar
    16   14   15 2
    17   14   16 1
    18   16   17 1
    19   16   18 1
    20    1   19 1
    21    1   20 1
    22    3   21 1
    23    6   22 1
    24    6   23 1
    25    8   24 1
    26    9   25 1
    27   10   26 1
    28   12   27 1
    29   13   28 1
    30   16   29 1
    31   17   30 1
    32   17   31 1
    33   17   32 1
    34   18   33 1
    35   18   34 1
    36   18   35 1
@<TRIPOS>MOLECULE
ZINC00085144
 31 32 0 0 0
SMALL
NO_CHARGES


@<TRIPOS>ATOM
      1 C           7.482    -7.125     1.312  C    
      2 C           6.576    -7.709     0.512  C    
      3 C           5.307    -8.256     0.976  C    
      4 N           4.194    -7.522     0.423  N    
      5 C           3.829    -6.249     0.701  C    
      6 N           2.839    -5.929    -0.146  N    
      7 N           2.603    -6.937    -0.855  N    
      8 C           3.376    -7.907    -0.547  C    
      9 S           3.364    -9.369    -1.423  S    
     10 C           4.360    -5.336     1.639  C    
     11 C           4.448    -5.667     3.010  C    
     12 C           4.977    -4.744     3.931  C    
     13 C           5.420    -3.476     3.502  C    
     14 C           5.315    -3.137     2.137  C    
     15 C           4.787    -4.057     1.213  C    
     16 S           6.046    -2.324     4.649  S    
     17 O           6.620    -3.067     5.933  O    
     18 O           7.199    -1.469     3.963  O    
     19 N           4.825    -1.277     5.136  N    
     20 H           8.326    -6.769     0.927  H    
     21 H           7.322    -7.030     2.289  H    
     22 H           6.775    -7.768    -0.462  H    
     23 H           5.272    -9.309     0.674  H    
     24 H           5.235    -8.249     2.067  H    
     25 H           1.953    -6.970    -1.527  H    
     26 H           4.106    -6.568     3.355  H    
     27 H           5.024    -5.000     4.920  H    
     28 H           5.617    -2.216     1.809  H    
     29 H           4.726    -3.789     0.225  H    
     30 H           5.035    -0.551     5.741  H    
     31 H           3.902    -1.447     4.875  H    
@<TRIPOS>BOND
     1    1    2 2
     2    2    3 1
     3    3    4 1
     4    4    8 1
     5    4    5 1
     6    5    6 2
     7    5   10 1
     8    6    7 1
     9    7    8 1
    10    8    9 2
    11   10   15 ar
    12   10   11 ar
    13   11   12 ar
    14   12   13 ar
    15   13   14 ar
    16   13   16 1
    17   14   15 ar
    18   16   17 2
    19   16   18 2
    20   16   19 1
    21    1   20 1
    22    1   21 1
    23    2   22 1
    24    3   23 1
    25    3   24 1
    26    7   25 1
    27   11   26 1
    28   12   27 1
    29   14   28 1
    30   15   29 1
    31   19   30 1
    32   19   31 1
@<TRIPOS>MOLECULE
ZINC00086525
 30 31 0 0 0
SMALL
NO_CHARGES


@<TRIPOS>ATOM
      1 C           4.195    -8.811    -1.652  C    
      2 C           2.799    -8.967    -1.672  C    
      3 C           1.971    -8.003    -1.066  C    
      4 C           2.522    -6.856    -0.443  C    
      5 C           3.932    -6.717    -0.431  C    
      6 C           4.760    -7.686    -1.026  C    
      7 N           1.652    -5.975     0.110  N    
      8 C           1.932    -4.717     0.731  C    
      9 C           2.198    -3.612    -0.334  C    
     10 C           2.288    -2.218     0.343  C    
     11 C           1.064    -1.956     1.260  C    
     12 C           0.871    -3.143     2.236  C    
     13 O           0.767    -4.389     1.516  O    
     14 O          -0.120    -1.785     0.487  O    
     15 O           2.396    -1.191    -0.639  O    
     16 H           4.798    -9.512    -2.089  H    
     17 H           2.388    -9.784    -2.131  H    
     18 H           0.961    -8.143    -1.101  H    
     19 H           4.377    -5.921     0.019  H    
     20 H           5.776    -7.576    -1.003  H    
     21 H           0.718    -6.234     0.083  H    
     22 H           2.779    -4.831     1.412  H    
     23 H           3.125    -3.819    -0.873  H    
     24 H           1.381    -3.603    -1.061  H    
     25 H           3.195    -2.182     0.952  H    
     26 H           1.231    -1.044     1.836  H    
     27 H           1.696    -3.177     2.955  H    
     28 H          -0.048    -2.996     2.802  H    
     29 H           0.050    -1.004    -0.073  H    
     30 H           3.217    -1.390    -1.126  H    
@<TRIPOS>BOND
     1    1    6 ar
     2    1    2 ar
     3    2    3 ar
     4    3    4 ar
     5    4    5 ar
     6    4    7 1
     7    5    6 ar
     8    7    8 1
     9    8   13 1
    10    8    9 1
    11    9   10 1
    12   10   11 1
    13   10   15 1
    14   11   12 1
    15   11   14 1
    16   12   13 1
    17    1   16 1
    18    2   17 1
    19    3   18 1
    20    5   19 1
    21    6   20 1
    22    7   21 1
    23    8   22 1
    24    9   23 1
    25    9   24 1
    26   10   25 1
    27   11   26 1
    28   12   27 1
    29   12   28 1
    30   14   29 1
    31   15   30 1
@<TRIPOS>MOLECULE
ZINC00092914
 20 20 0 0 0
SMALL
NO_CHARGES


@<TRIPOS>ATOM
      1 C           4.962    -5.551    -1.955  C    
      2 C           4.169    -4.435    -2.256  C    
      3 C           2.964    -4.228    -1.567  C    
      4 C           2.536    -5.133    -0.572  C    
      5 C           3.324    -6.284    -0.267  C    
      6 C           4.544    -6.463    -0.972  C    
      7 C           2.955    -7.261     0.701  C    
      8 O           1.670    -7.484     1.060  O    
      9 S           1.044    -4.721     0.238  S    
     10 C           1.797    -3.834     1.622  C    
     11 C           0.749    -3.374     2.542  C    
     12 O          -0.008    -4.266     3.218  O    
     13 O           3.858    -8.128     1.217  O    
     14 O           0.557    -2.055     2.769  O    
     15 H           5.842    -5.704    -2.456  H    
     16 H           4.471    -3.771    -2.972  H    
     17 H           2.404    -3.402    -1.794  H    
     18 H           5.141    -7.275    -0.792  H    
     19 H           2.481    -4.490     2.162  H    
     20 H           2.359    -2.980     1.239  H    
@<TRIPOS>BOND
     1    1    6 ar
     2    1    2 ar
     3    2    3 ar
     4    3    4 ar
     5    4    5 ar
     6    4    9 1
     7    5    6 ar
     8    5    7 1
     9    7    8 2
    10    7   13 1
    11    9   10 1
    12   10   11 1
    13   11   12 2
    14   11   14 1
    15    1   15 1
    16    2   16 1
    17    3   17 1
    18    6   18 1
    19   10   19 1
    20   10   20 1
@<TRIPOS>MOLECULE
ZINC00103786
 34 36 0 0 0
SMALL
NO_CHARGES


@<TRIPOS>ATOM
      1 C           6.034   -10.677    -1.227  C    
      2 C           4.807    -9.989    -1.233  C    
      3 C           4.489    -9.105    -0.186  C    
      4 C           5.399    -8.887     0.876  C    
      5 C           6.627    -9.590     0.871  C    
      6 C           6.941   -10.478    -0.172  C    
      7 C           5.062    -7.947     1.966  C    
      8 O           4.812    -6.641     1.407  O    
      9 C           4.688    -5.643     2.332  C    
     10 C           3.584    -5.559     3.205  C    
     11 C           3.499    -4.518     4.148  C    
     12 C           4.499    -3.518     4.226  C    
     13 C           5.589    -3.601     3.326  C    
     14 C           5.682    -4.649     2.391  C    
     15 N           4.407    -2.497     5.141  N    
     16 C           4.122    -2.619     6.427  C    
     17 O           3.937    -3.650     7.060  O    
     18 C           4.121    -1.412     6.982  C    
     19 C           4.406    -0.533     6.030  C    
     20 C           4.582    -1.209     4.900  C    
     21 O           4.810    -0.672     3.824  O    
     22 H           6.265   -11.317    -1.984  H    
     23 H           4.149   -10.131    -2.000  H    
     24 H           3.594    -8.614    -0.209  H    
     25 H           7.301    -9.462     1.627  H    
     26 H           7.831   -10.978    -0.164  H    
     27 H           4.169    -8.318     2.475  H    
     28 H           5.873    -7.898     2.702  H    
     29 H           2.842    -6.261     3.162  H    
     30 H           2.688    -4.485     4.766  H    
     31 H           6.337    -2.907     3.357  H    
     32 H           6.484    -4.692     1.758  H    
     33 H           3.942    -1.194     7.936  H    
     34 H           4.473     0.452     6.153  H    
@<TRIPOS>BOND
     1    1    6 ar
     2    1    2 ar
     3    2    3 ar
     4    3    4 ar
     5    4    5 ar
     6    4    7 1
     7    5    6 ar
     8    7    8 1
     9    8    9 1
    10    9   14 ar
    11    9   10 ar
    12   10   11 ar
    13   11   12 ar
    14   12   13 ar
    15   12   15 1
    16   13   14 ar
    17   15   20 1
    18   15   16 1
    19   16   17 2
    20   16   18 1
    21   18   19 2
    22   19   20 1
    23   20   21 2
    24    1   22 1
    25    2   23 1
    26    3   24 1
    27    5   25 1
    28    6   26 1
    29    7   27 1
    30    7   28 1
    31   10   29 1
    32   11   30 1
    33   13   31 1
    34   14   32 1
    35   18   33 1
    36   19   34 1
@<TRIPOS>MOLECULE
ZINC00105984
 32 34 0 0 0
SMALL
NO_CHARGES


@<TRIPOS>ATOM
      1 C           7.246    -8.478    -1.507  C    
      2 O           7.228    -7.677    -0.312  O    
      3 C           6.043    -7.440     0.354  C    
      4 C           4.856    -8.205     0.227  C    
      5 C           3.712    -7.900     0.991  C    
      6 C           3.741    -6.827     1.897  C    
      7 C           4.907    -6.048     2.041  C    
      8 C           6.052    -6.370     1.275  C    
      9 O           4.956    -5.053     2.976  O    
     10 C           4.657    -3.806     2.485  C    
     11 N           3.763    -3.483     1.540  N    
     12 N           3.744    -2.224     1.478  N    
     13 N           4.516    -1.736     2.296  N    
     14 N           5.116    -2.635     2.959  N    
     15 C           6.023    -2.391     3.962  C    
     16 C           7.134    -3.242     4.176  C    
     17 C           8.058    -2.982     5.203  C    
     18 C           7.884    -1.867     6.038  C    
     19 C           6.796    -1.003     5.835  C    
     20 C           5.878    -1.261     4.801  C    
     21 H           6.999    -9.515    -1.277  H    
     22 H           8.251    -8.455    -1.930  H    
     23 H           6.550    -8.083    -2.251  H    
     24 H           4.815    -9.002    -0.407  H    
     25 H           2.863    -8.461     0.892  H    
     26 H           2.916    -6.615     2.465  H    
     27 H           6.905    -5.817     1.398  H    
     28 H           7.296    -4.047     3.566  H    
     29 H           8.861    -3.601     5.341  H    
     30 H           8.554    -1.677     6.785  H    
     31 H           6.669    -0.189     6.438  H    
     32 H           5.088    -0.624     4.672  H    
@<TRIPOS>BOND
     1    1    2 1
     2    2    3 1
     3    3    8 ar
     4    3    4 ar
     5    4    5 ar
     6    5    6 ar
     7    6    7 ar
     8    7    8 ar
     9    7    9 1
    10    9   10 1
    11   10   14 1
    12   10   11 2
    13   11   12 1
    14   12   13 2
    15   13   14 1
    16   14   15 1
    17   15   20 ar
    18   15   16 ar
    19   16   17 ar
    20   17   18 ar
    21   18   19 ar
    22   19   20 ar
    23    1   21 1
    24    1   22 1
    25    1   23 1
    26    4   24 1
    27    5   25 1
    28    6   26 1
    29    8   27 1
    30   16   28 1
    31   17   29 1
    32   18   30 1
    33   19   31 1
    34   20   32 1
@<TRIPOS>MOLECULE
ZINC00116696
 40 41 0 0 0
SMALL
NO_CHARGES


@<TRIPOS>ATOM
      1 C           6.810    -6.874     2.209  C    
      2 C           5.724    -7.759     1.576  C    
      3 O           4.730    -6.926     0.975  O    
      4 C           3.604    -7.344     0.331  C    
      5 O           3.333    -8.664     0.201  O    
      6 C           2.645    -6.381    -0.241  C    
      7 N           2.950    -5.046     0.084  N    
      8 C           3.447    -4.128    -0.680  C    
      9 S           4.277    -4.340    -2.153  S    
     10 N           3.597    -3.053    -0.018  N    
     11 C           3.201    -3.168     1.297  C    
     12 N           2.720    -4.570     1.299  N    
     13 C           4.419    -3.006     2.259  C    
     14 C           4.028    -3.202     3.758  C    
     15 C           2.529    -2.879     4.085  C    
     16 C           1.968    -1.764     3.152  C    
     17 C           2.064    -2.141     1.638  C    
     18 C           2.331    -2.525     5.582  C    
     19 H           7.234    -6.204     1.458  H    
     20 H           7.607    -7.501     2.613  H    
     21 H           6.383    -6.278     3.018  H    
     22 H           6.172    -8.413     0.825  H    
     23 H           5.261    -8.371     2.354  H    
     24 H           2.632    -6.535    -1.324  H    
     25 H           1.646    -6.606     0.134  H    
     26 H           4.041    -2.297    -0.350  H    
     27 H           1.721    -4.602     1.504  H    
     28 H           3.229    -5.114     1.994  H    
     29 H           5.210    -3.717     1.995  H    
     30 H           4.828    -2.000     2.127  H    
     31 H           4.223    -4.239     4.046  H    
     32 H           4.690    -2.572     4.357  H    
     33 H           1.937    -3.785     3.900  H    
     34 H           0.924    -1.558     3.398  H    
     35 H           2.537    -0.846     3.329  H    
     36 H           2.223    -1.216     1.078  H    
     37 H           1.104    -2.550     1.305  H    
     38 H           2.683    -3.345     6.212  H    
     39 H           1.274    -2.358     5.798  H    
     40 H           2.886    -1.622     5.844  H    
@<TRIPOS>BOND
     1    1    2 1
     2    2    3 1
     3    3    4 1
     4    4    5 2
     5    4    6 1
     6    6    7 1
     7    7   12 1
     8    7    8 1
     9    8    9 2
    10    8   10 1
    11   10   11 1
    12   11   17 1
    13   11   12 1
    14   11   13 1
    15   13   14 1
    16   14   15 1
    17   15   16 1
    18   15   18 1
    19   16   17 1
    20    1   19 1
    21    1   20 1
    22    1   21 1
    23    2   22 1
    24    2   23 1
    25    6   24 1
    26    6   25 1
    27   10   26 1
    28   12   27 1
    29   12   28 1
    30   13   29 1
    31   13   30 1
    32   14   31 1
    33   14   32 1
    34   15   33 1
    35   16   34 1
    36   16   35 1
    37   17   36 1
    38   17   37 1
    39   18   38 1
    40   18   39 1
    41   18   40 1
@<TRIPOS>MOLECULE
ZINC00124038
 44 46 0 0 0
SMALL
NO_CHARGES


@<TRIPOS>ATOM
      1 C           4.805    -2.090    -1.674  C    
      2 C           3.897    -0.930    -2.131  C    
      3 O           2.601    -1.097    -1.555  O    
      4 C           1.487    -0.348    -1.780  C    
      5 O           1.546     0.635    -2.707  O    
      6 C           0.264    -0.670    -1.179  C    
      7 C           0.157    -1.170     0.085  C    
      8 N          -1.031    -1.400     0.595  N    
      9 C          -2.187    -1.139     0.037  C    
     10 C          -2.248    -0.645    -1.224  C    
     11 C          -0.978    -0.455    -1.967  C    
     12 C          -0.962    -1.337    -3.184  C    
     13 C          -0.977    -2.750    -3.057  C    
     14 C          -0.962    -3.580    -4.194  C    
     15 C          -0.926    -3.009    -5.478  C    
     16 C          -0.908    -1.610    -5.624  C    
     17 C          -0.923    -0.780    -4.485  C    
     18 F          -0.875    -1.086    -6.818  F    
     19 C          -3.472    -0.361    -1.803  C    
     20 O          -3.536     0.377    -2.777  O    
     21 C          -4.744    -0.808    -1.239  C    
     22 C          -4.576    -1.807    -0.064  C    
     23 C          -3.389    -1.381     0.834  C    
     24 C           1.285    -1.415     0.987  C    
     25 H           4.904    -2.083    -0.579  H    
     26 H           5.794    -1.975    -2.121  H    
     27 H           4.379    -3.051    -1.991  H    
     28 H           4.326     0.023    -1.805  H    
     29 H           3.823    -0.932    -3.226  H    
     30 H          -1.054    -1.750     1.461  H    
     31 H          -0.974     0.597    -2.266  H    
     32 H          -1.004    -3.182    -2.131  H    
     33 H          -0.977    -4.599    -4.085  H    
     34 H          -0.916    -3.610    -6.308  H    
     35 H          -0.907     0.234    -4.614  H    
     36 H          -5.294     0.067    -0.884  H    
     37 H          -5.338    -1.289    -2.021  H    
     38 H          -5.495    -1.853     0.527  H    
     39 H          -4.382    -2.807    -0.465  H    
     40 H          -3.221    -2.166     1.580  H    
     41 H          -3.648    -0.457     1.363  H    
     42 H           1.897    -2.236     0.608  H    
     43 H           0.962    -1.693     1.995  H    
     44 H           1.894    -0.515     1.075  H    
@<TRIPOS>BOND
     1    1    2 1
     2    2    3 1
     3    3    4 1
     4    4    5 2
     5    4    6 1
     6    6   11 1
     7    6    7 2
     8    7    8 1
     9    7   24 1
    10    8    9 1
    11    9   23 1
    12    9   10 2
    13   10   11 1
    14   10   19 1
    15   11   12 1
    16   12   17 ar
    17   12   13 ar
    18   13   14 ar
    19   14   15 ar
    20   15   16 ar
    21   16   17 ar
    22   16   18 1
    23   19   20 2
    24   19   21 1
    25   21   22 1
    26   22   23 1
    27    1   25 1
    28    1   26 1
    29    1   27 1
    30    2   28 1
    31    2   29 1
    32    8   30 1
    33   11   31 1
    34   13   32 1
    35   14   33 1
    36   15   34 1
    37   17   35 1
    38   21   36 1
    39   21   37 1
    40   22   38 1
    41   22   39 1
    42   23   40 1
    43   23   41 1
    44   24   42 1
    45   24   43 1
    46   24   44 1
@<TRIPOS>MOLECULE
ZINC00125719
 39 41 0 0 0
SMALL
NO_CHARGES


@<TRIPOS>ATOM
      1 C           2.762     5.436     2.961  C    
      2 C           1.616     4.536     3.114  C    
      3 C           1.749     3.373     3.785  C    
      4 C           0.708     2.489     3.934  C    
      5 C          -0.563     2.830     3.580  C    
      6 C          -0.814     4.075     3.036  C    
      7 S          -2.365     4.793     3.115  S    
      8 C           0.296     4.929     2.572  C    
      9 C           0.280     5.072     1.009  C    
     10 C           0.615     3.904     0.192  C    
     11 O           0.844     2.826     0.728  O    
     12 C           0.699     3.977    -1.192  C    
     13 C           1.016     2.935    -2.083  C    
     14 C           1.040     3.292    -3.446  C    
     15 C           0.743     4.633    -3.695  C    
     16 S           0.452     5.375    -2.173  S    
     17 C          -1.508     1.953     3.591  C    
     18 N          -2.352     1.175     3.606  N    
     19 C           1.046     1.228     4.437  C    
     20 C           0.974     0.971     5.826  C    
     21 C           1.307    -0.300     6.330  C    
     22 C           1.711    -1.322     5.453  C    
     23 C           1.780    -1.077     4.069  C    
     24 C           1.449     0.193     3.562  C    
     25 H           3.034     5.524     1.907  H    
     26 H           3.655     5.097     3.496  H    
     27 H           2.511     6.428     3.341  H    
     28 H           2.640     3.140     4.171  H    
     29 H           0.107     5.930     2.984  H    
     30 H          -0.711     5.414     0.706  H    
     31 H           0.970     5.876     0.741  H    
     32 H           1.221     1.981    -1.778  H    
     33 H           1.258     2.623    -4.189  H    
     34 H           0.707     5.092    -4.606  H    
     35 H           0.682     1.706     6.475  H    
     36 H           1.255    -0.480     7.335  H    
     37 H           1.954    -2.246     5.821  H    
     38 H           2.071    -1.822     3.433  H    
     39 H           1.500     0.355     2.552  H    
@<TRIPOS>BOND
     1    1    2 1
     2    2    8 1
     3    2    3 2
     4    3    4 1
     5    4    5 2
     6    4   19 1
     7    5    6 1
     8    5   17 1
     9    6    7 2
    10    6    8 1
    11    8    9 1
    12    9   10 1
    13   10   11 2
    14   10   12 1
    15   12   16 1
    16   12   13 2
    17   13   14 1
    18   14   15 2
    19   15   16 1
    20   17   18 3
    21   19   24 ar
    22   19   20 ar
    23   20   21 ar
    24   21   22 ar
    25   22   23 ar
    26   23   24 ar
    27    1   25 1
    28    1   26 1
    29    1   27 1
    30    3   28 1
    31    8   29 1
    32    9   30 1
    33    9   31 1
    34   13   32 1
    35   14   33 1
    36   15   34 1
    37   20   35 1
    38   21   36 1
    39   22   37 1
    40   23   38 1
    41   24   39 1
@<TRIPOS>MOLECULE
ZINC00128118
 40 41 0 0 0
SMALL
NO_CHARGES


@<TRIPOS>ATOM
      1 C           7.814    -8.111     0.221  C    
      2 C           6.730    -7.925     1.326  C    
      3 C           6.767    -6.482     1.906  C    
      4 C           5.285    -6.166     2.180  C    
      5 C           4.548    -6.956     1.051  C    
      6 N           5.430    -8.022     0.800  N    
      7 O           5.072    -9.028     0.091  O    
      8 C           3.156    -7.457     1.549  C    
      9 C           4.368    -6.137    -0.270  C    
     10 N           5.048    -4.748     2.194  N    
     11 C           4.144    -4.094     2.912  C    
     12 O           3.425    -4.723     3.680  O    
     13 C           3.979    -2.707     2.787  C    
     14 C           4.983    -1.880     2.215  C    
     15 C           4.781    -0.492     2.108  C    
     16 N           3.623     0.059     2.545  N    
     17 C           2.633    -0.683     3.098  C    
     18 C           2.790    -2.073     3.234  C    
     19 C           6.925    -8.995     2.449  C    
     20 H           7.798    -9.126    -0.177  H    
     21 H           8.807    -7.914     0.625  H    
     22 H           7.636    -7.421    -0.606  H    
     23 H           7.372    -6.404     2.814  H    
     24 H           7.167    -5.774     1.174  H    
     25 H           5.047    -6.593     3.164  H    
     26 H           5.450    -8.852    -0.799  H    
     27 H           3.267    -8.117     2.411  H    
     28 H           2.637    -8.009     0.763  H    
     29 H           2.527    -6.613     1.841  H    
     30 H           3.702    -5.288    -0.106  H    
     31 H           3.931    -6.760    -1.053  H    
     32 H           5.325    -5.758    -0.630  H    
     33 H           5.563    -4.229     1.564  H    
     34 H           5.870    -2.266     1.887  H    
     35 H           5.501     0.106     1.702  H    
     36 H           1.776    -0.229     3.413  H    
     37 H           2.024    -2.609     3.646  H    
     38 H           6.840   -10.003     2.038  H    
     39 H           6.171    -8.882     3.231  H    
     40 H           7.912    -8.894     2.910  H    
@<TRIPOS>BOND
     1    1    2 1
     2    2    6 1
     3    2    3 1
     4    2   19 1
     5    3    4 1
     6    4    5 1
     7    4   10 1
     8    5    6 1
     9    5    8 1
    10    5    9 1
    11    6    7 1
    12   10   11 1
    13   11   12 2
    14   11   13 1
    15   13   18 ar
    16   13   14 ar
    17   14   15 ar
    18   15   16 ar
    19   16   17 ar
    20   17   18 ar
    21    1   20 1
    22    1   21 1
    23    1   22 1
    24    3   23 1
    25    3   24 1
    26    4   25 1
    27    7   26 1
    28    8   27 1
    29    8   28 1
    30    8   29 1
    31    9   30 1
    32    9   31 1
    33    9   32 1
    34   10   33 1
    35   14   34 1
    36   15   35 1
    37   17   36 1
    38   18   37 1
    39   19   38 1
    40   19   39 1
    41   19   40 1
@<TRIPOS>MOLECULE
ZINC00128563
 44 46 0 0 0
SMALL
NO_CHARGES


@<TRIPOS>ATOM
      1 C          -0.607    -8.486    -6.387  C    
      2 C          -0.662    -6.147    -5.547  C    
      3 C          -0.635    -5.245    -4.281  C    
      4 N           0.515    -5.574    -3.451  N    
      5 C           0.578    -6.974    -3.063  C    
      6 C           0.633    -7.872    -4.325  C    
      7 C           1.466    -4.644    -3.080  C    
      8 C           1.151    -3.268    -2.916  C    
      9 C           2.119    -2.316    -2.544  C    
     10 C           3.462    -2.698    -2.316  C    
     11 C           3.791    -4.059    -2.479  C    
     12 C           2.819    -5.006    -2.848  C    
     13 N           4.503    -1.869    -1.977  N    
     14 C           4.551    -0.585    -1.620  C    
     15 O           3.519     0.070    -1.496  O    
     16 C           5.775     0.038    -1.341  C    
     17 C           6.919    -0.706    -0.938  C    
     18 C           8.145    -0.070    -0.669  C    
     19 C           8.262     1.326    -0.797  C    
     20 C           7.144     2.084    -1.189  C    
     21 C           5.916     1.450    -1.452  C    
     22 N          -0.552    -7.597    -5.193  N    
     23 H          -1.521    -8.303    -6.953  H    
     24 H          -0.615    -9.534    -6.080  H    
     25 H           0.248    -8.324    -7.045  H    
     26 H          -1.604    -5.969    -6.075  H    
     27 H           0.162    -5.858    -6.209  H    
     28 H          -0.640    -4.214    -4.639  H    
     29 H          -1.553    -5.398    -3.703  H    
     30 H           1.414    -7.221    -2.406  H    
     31 H          -0.328    -7.223    -2.500  H    
     32 H           1.564    -7.683    -4.869  H    
     33 H           0.629    -8.918    -4.009  H    
     34 H           0.189    -2.937    -3.013  H    
     35 H           1.822    -1.346    -2.455  H    
     36 H           4.757    -4.373    -2.344  H    
     37 H           3.138    -5.964    -3.002  H    
     38 H           5.371    -2.300    -2.013  H    
     39 H           6.870    -1.722    -0.818  H    
     40 H           8.954    -0.624    -0.380  H    
     41 H           9.154     1.786    -0.603  H    
     42 H           7.226     3.097    -1.282  H    
     43 H           5.124     2.032    -1.739  H    
     44 H          -1.376    -7.820    -4.632  H    
@<TRIPOS>BOND
     1    1   22 1
     2    2    3 1
     3    2   22 1
     4    3    4 1
     5    4    5 1
     6    4    7 1
     7    5    6 1
     8    6   22 1
     9    7   12 ar
    10    7    8 ar
    11    8    9 ar
    12    9   10 ar
    13   10   11 ar
    14   10   13 1
    15   11   12 ar
    16   13   14 1
    17   14   15 2
    18   14   16 1
    19   16   21 ar
    20   16   17 ar
    21   17   18 ar
    22   18   19 ar
    23   19   20 ar
    24   20   21 ar
    25    1   23 1
    26    1   24 1
    27    1   25 1
    28    2   26 1
    29    2   27 1
    30    3   28 1
    31    3   29 1
    32    5   30 1
    33    5   31 1
    34    6   32 1
    35    6   33 1
    36    8   34 1
    37    9   35 1
    38   11   36 1
    39   12   37 1
    40   13   38 1
    41   17   39 1
    42   18   40 1
    43   19   41 1
    44   20   42 1
    45   21   43 1
    46   22   44 1
@<TRIPOS>MOLECULE
ZINC00146432
 28 28 0 0 0
SMALL
NO_CHARGES


@<TRIPOS>ATOM
      1 C           4.172    -6.718     0.984  C    
      2 C           5.451    -6.528     0.434  C    
      3 C           5.640    -5.700    -0.697  C    
      4 C           4.501    -5.064    -1.252  C    
      5 C           3.214    -5.217    -0.693  C    
      6 C           3.059    -6.078     0.417  C    
      7 N           2.176    -4.591    -1.320  N    
      8 C           1.036    -4.067    -0.805  C    
      9 N           0.189    -3.561    -1.721  N    
     10 N           0.828    -3.983     0.533  N    
     11 C          -0.238    -3.545     1.241  C    
     12 N          -0.118    -3.533     2.578  N    
     13 N          -1.418    -3.144     0.742  N    
     14 C           6.932    -5.521    -1.253  C    
     15 O           8.026    -6.121    -0.733  O    
     16 O           7.142    -4.727    -2.328  O    
     17 H           4.047    -7.340     1.787  H    
     18 H           6.236    -7.017     0.870  H    
     19 H           4.608    -4.468    -2.073  H    
     20 H           2.134    -6.276     0.800  H    
     21 H          -0.619    -3.096    -1.455  H    
     22 H           0.414    -3.622    -2.666  H    
     23 H           1.569    -4.277     1.081  H    
     24 H          -0.863    -3.240     3.130  H    
     25 H           0.713    -3.820     2.989  H    
     26 H          -2.127    -2.862     1.347  H    
     27 H           2.296    -4.449    -2.271  H    
     28 H          -1.583    -3.173    -0.211  H    
@<TRIPOS>BOND
     1    1    6 ar
     2    1    2 ar
     3    2    3 ar
     4    3    4 ar
     5    3   14 1
     6    4    5 ar
     7    5    6 ar
     8    5    7 1
     9    7    8 2
    10    8    9 1
    11    8   10 1
    12   10   11 1
    13   11   12 1
    14   11   13 2
    15   14   15 1
    16   14   16 2
    17    1   17 1
    18    2   18 1
    19    4   19 1
    20    6   20 1
    21    9   21 1
    22    9   22 1
    23   10   23 1
    24   12   24 1
    25   12   25 1
    26   13   26 1
    27    7   27 1
    28   13   28 1
@<TRIPOS>MOLECULE
ZINC00145436
 34 35 0 0 0
SMALL
NO_CHARGES


@<TRIPOS>ATOM
      1 C           1.548    -7.631    -4.396  C    
      2 C           1.695    -6.843    -3.145  C    
      3 C           2.129    -5.498    -3.204  C    
      4 C           2.277    -4.710    -2.038  C    
      5 C           1.998    -5.295    -0.781  C    
      6 C           1.542    -6.627    -0.708  C    
      7 C           1.398    -7.405    -1.877  C    
      8 Cl          0.852    -9.004    -1.699  Cl   
      9 O           2.101    -4.540     0.361  O    
     10 C           3.250    -4.827     1.175  C    
     11 N           2.672    -3.404    -2.046  N    
     12 S           2.969    -2.432    -3.394  S    
     13 O           4.204    -3.014    -4.209  O    
     14 O           1.672    -2.367    -4.316  O    
     15 C           3.361    -0.825    -2.842  C    
     16 C           4.681    -0.513    -2.450  C    
     17 C           5.003     0.778    -1.988  C    
     18 C           4.004     1.770    -1.903  C    
     19 C           2.685     1.460    -2.285  C    
     20 C           2.364     0.169    -2.747  C    
     21 Cl          4.387     3.318    -1.332  Cl   
     22 H           2.215    -8.496    -4.371  H    
     23 H           1.790    -7.046    -5.288  H    
     24 H           0.517    -7.983    -4.497  H    
     25 H           2.335    -5.090    -4.114  H    
     26 H           1.313    -7.031     0.205  H    
     27 H           3.122    -5.786     1.689  H    
     28 H           3.329    -4.042     1.926  H    
     29 H           4.178    -4.846     0.595  H    
     30 H           2.755    -2.969    -1.181  H    
     31 H           5.412    -1.229    -2.491  H    
     32 H           5.963     0.990    -1.706  H    
     33 H           1.951     2.169    -2.229  H    
     34 H           1.399    -0.044    -3.013  H    
@<TRIPOS>BOND
     1    1    2 1
     2    2    7 ar
     3    2    3 ar
     4    3    4 ar
     5    4    5 ar
     6    4   11 1
     7    5    6 ar
     8    5    9 1
     9    6    7 ar
    10    7    8 1
    11    9   10 1
    12   11   12 1
    13   12   13 2
    14   12   14 2
    15   12   15 1
    16   15   20 ar
    17   15   16 ar
    18   16   17 ar
    19   17   18 ar
    20   18   19 ar
    21   18   21 1
    22   19   20 ar
    23    1   22 1
    24    1   23 1
    25    1   24 1
    26    3   25 1
    27    6   26 1
    28   10   27 1
    29   10   28 1
    30   10   29 1
    31   11   30 1
    32   16   31 1
    33   17   32 1
    34   19   33 1
    35   20   34 1
@<TRIPOS>MOLECULE
ZINC00148907
 28 29 0 0 0
SMALL
NO_CHARGES


@<TRIPOS>ATOM
      1 C           0.718     2.788     2.628  C    
      2 O           1.369     2.036     1.603  O    
      3 C           2.699     1.764     1.513  C    
      4 O           3.537     2.286     2.446  O    
      5 C           3.218     1.050     0.435  C    
      6 C           2.553     0.165    -0.328  C    
      7 C           3.266    -0.353    -1.462  C    
      8 S           4.905     0.379    -1.492  S    
      9 C           4.593     1.251     0.048  C    
     10 S           0.966    -0.446    -0.061  S    
     11 C           1.241    -1.295     1.440  C    
     12 C           2.199    -2.326     1.548  C    
     13 C           2.394    -2.995     2.774  C    
     14 C           1.618    -2.648     3.898  C    
     15 C           0.644    -1.638     3.790  C    
     16 C           0.451    -0.970     2.564  C    
     17 Cl          1.856    -3.448     5.372  Cl   
     18 H           0.843     2.297     3.597  H    
     19 H          -0.348     2.847     2.397  H    
     20 H           1.127     3.802     2.677  H    
     21 H           3.367    -1.436    -1.397  H    
     22 H           2.745    -0.094    -2.386  H    
     23 H           4.797     2.313    -0.115  H    
     24 H           5.264     0.868     0.819  H    
     25 H           2.763    -2.597     0.739  H    
     26 H           3.097    -3.735     2.837  H    
     27 H           0.070    -1.384     4.597  H    
     28 H          -0.266    -0.244     2.501  H    
@<TRIPOS>BOND
     1    1    2 1
     2    2    3 1
     3    3    4 2
     4    3    5 1
     5    5    9 1
     6    5    6 2
     7    6    7 1
     8    6   10 1
     9    7    8 1
    10    8    9 1
    11   10   11 1
    12   11   16 ar
    13   11   12 ar
    14   12   13 ar
    15   13   14 ar
    16   14   15 ar
    17   14   17 1
    18   15   16 ar
    19    1   18 1
    20    1   19 1
    21    1   20 1
    22    7   21 1
    23    7   22 1
    24    9   23 1
    25    9   24 1
    26   12   25 1
    27   13   26 1
    28   15   27 1
    29   16   28 1
@<TRIPOS>MOLECULE
ZINC00151572
 42 44 0 0 0
SMALL
NO_CHARGES


@<TRIPOS>ATOM
      1 C           4.475    -9.291     1.178  C    
      2 C           4.615    -8.094     2.003  C    
      3 C           4.417    -6.855     1.506  C    
      4 C           3.859    -6.579     0.276  C    
      5 N           2.581    -6.782    -0.172  N    
      6 C           2.403    -6.474    -1.503  C    
      7 C           1.220    -6.603    -2.271  C    
      8 C           1.215    -6.248    -3.637  C    
      9 C           2.382    -5.742    -4.248  C    
     10 C           3.566    -5.597    -3.503  C    
     11 C           3.550    -5.971    -2.151  C    
     12 S           4.819    -5.937    -1.003  S    
     13 C           1.498    -7.228     0.671  C    
     14 N           5.159    -8.276     3.219  N    
     15 C           4.866    -7.690     4.412  C    
     16 C           3.784    -6.805     4.634  C    
     17 C           3.542    -6.276     5.912  C    
     18 C           4.374    -6.626     6.989  C    
     19 C           5.470    -7.514     6.820  C    
     20 C           5.683    -8.036     5.513  C    
     21 C           6.318    -7.866     7.887  C    
     22 O           7.264    -8.625     7.695  O    
     23 C           6.161    -7.375     9.250  C    
     24 H           3.450    -9.411     0.844  H    
     25 H           4.750   -10.194     1.717  H    
     26 H           5.116    -9.221     0.305  H    
     27 H           4.792    -6.077     2.000  H    
     28 H           0.358    -6.966    -1.849  H    
     29 H           0.357    -6.355    -4.183  H    
     30 H           2.368    -5.484    -5.236  H    
     31 H           4.418    -5.232    -3.936  H    
     32 H           1.116    -8.190     0.315  H    
     33 H           0.685    -6.491     0.646  H    
     34 H           1.790    -7.355     1.717  H    
     35 H           5.818    -8.989     3.266  H    
     36 H           3.145    -6.556     3.879  H    
     37 H           2.754    -5.641     6.061  H    
     38 H           4.158    -6.216     7.902  H    
     39 H           6.461    -8.679     5.347  H    
     40 H           6.234    -6.284     9.263  H    
     41 H           6.931    -7.768     9.919  H    
     42 H           5.186    -7.674     9.647  H    
@<TRIPOS>BOND
     1    1    2 1
     2    2    3 2
     3    2   14 1
     4    3    4 1
     5    4   12 1
     6    4    5 2
     7    5    6 1
     8    5   13 1
     9    6   11 ar
    10    6    7 ar
    11    7    8 ar
    12    8    9 ar
    13    9   10 ar
    14   10   11 ar
    15   11   12 1
    16   14   15 1
    17   15   20 ar
    18   15   16 ar
    19   16   17 ar
    20   17   18 ar
    21   18   19 ar
    22   19   20 ar
    23   19   21 1
    24   21   22 2
    25   21   23 1
    26    1   24 1
    27    1   25 1
    28    1   26 1
    29    3   27 1
    30    7   28 1
    31    8   29 1
    32    9   30 1
    33   10   31 1
    34   13   32 1
    35   13   33 1
    36   13   34 1
    37   14   35 1
    38   16   36 1
    39   17   37 1
    40   18   38 1
    41   20   39 1
    42   23   40 1
    43   23   41 1
    44   23   42 1
@<TRIPOS>MOLECULE
ZINC00151923
 32 34 0 0 0
SMALL
NO_CHARGES


@<TRIPOS>ATOM
      1 C           3.461     0.487    -5.207  C    
      2 C           2.494     1.397    -5.823  C    
      3 C           1.964     1.072    -7.027  C    
      4 C           1.047     1.898    -7.654  C    
      5 O           0.523     1.577    -8.858  O    
      6 O           0.669     3.060    -7.053  O    
      7 C           1.165     3.438    -5.835  C    
      8 C           2.102     2.603    -5.176  C    
      9 C           2.591     3.041    -3.919  C    
     10 C           2.182     4.261    -3.316  C    
     11 C           1.201     5.038    -3.996  C    
     12 C           0.725     4.639    -5.257  C    
     13 O           0.648     6.180    -3.490  O    
     14 C          -0.186     6.265    -2.418  C    
     15 O          -0.583     5.146    -1.766  O    
     16 C          -0.645     7.522    -1.997  C    
     17 C          -1.547     7.799    -0.958  C    
     18 C          -1.814     9.164    -0.757  C    
     19 C          -1.133    10.018    -1.626  C    
     20 S          -0.183     9.037    -2.670  S    
     21 N           2.757     4.663    -2.141  N    
     22 O           2.574     5.745    -1.648  O    
     23 O           3.619     3.924    -1.493  O    
     24 H           4.410     1.004    -5.055  H    
     25 H           3.670    -0.403    -5.805  H    
     26 H           3.083     0.147    -4.242  H    
     27 H           2.223     0.232    -7.492  H    
     28 H           3.282     2.467    -3.437  H    
     29 H           0.030     5.209    -5.749  H    
     30 H          -1.984     7.070    -0.391  H    
     31 H          -2.454     9.504    -0.038  H    
     32 H          -1.189    11.038    -1.647  H    
@<TRIPOS>BOND
     1    1    2 1
     2    2    8 1
     3    2    3 2
     4    3    4 1
     5    4    5 2
     6    4    6 1
     7    6    7 1
     8    7   12 ar
     9    7    8 ar
    10    8    9 ar
    11    9   10 ar
    12   10   11 ar
    13   10   21 1
    14   11   12 ar
    15   11   13 1
    16   13   14 1
    17   14   15 2
    18   14   16 1
    19   16   20 1
    20   16   17 2
    21   17   18 1
    22   18   19 2
    23   19   20 1
    24   21   22 2
    25   21   23 1
    26    1   24 1
    27    1   25 1
    28    1   26 1
    29    3   27 1
    30    9   28 1
    31   12   29 1
    32   17   30 1
    33   18   31 1
    34   19   32 1
@<TRIPOS>MOLECULE
ZINC00152817
 21 21 0 0 0
SMALL
NO_CHARGES


@<TRIPOS>ATOM
      1 C           2.665    -8.078    -0.487  C    
      2 C           3.632    -8.416     0.473  C    
      3 C           4.101    -7.433     1.359  C    
      4 C           3.603    -6.117     1.294  C    
      5 C           2.617    -5.757     0.332  C    
      6 C           2.155    -6.765    -0.568  C    
      7 Cl          1.014    -6.514    -1.799  Cl   
      8 N           2.200    -4.461     0.364  N    
      9 N           1.281    -3.878    -0.355  N    
     10 C           0.969    -2.596    -0.241  C    
     11 O           1.565    -1.863     0.540  O    
     12 C          -0.072    -2.028    -1.071  C    
     13 Cl         -1.405    -1.440    -0.084  Cl   
     14 Cl          4.241    -5.010     2.418  Cl   
     15 Cl          4.231    -9.997     0.560  Cl   
     16 H           2.333    -8.801    -1.134  H    
     17 H           4.808    -7.681     2.057  H    
     18 H           2.630    -3.894     1.022  H    
     19 H           0.780    -4.400    -0.994  H    
     20 H           0.334    -1.197    -1.650  H    
     21 H          -0.473    -2.766    -1.771  H    
@<TRIPOS>BOND
     1    1    6 ar
     2    1    2 ar
     3    2    3 ar
     4    2   15 1
     5    3    4 ar
     6    4    5 ar
     7    4   14 1
     8    5    6 ar
     9    5    8 1
    10    6    7 1
    11    8    9 1
    12    9   10 1
    13   10   11 2
    14   10   12 1
    15   12   13 1
    16    1   16 1
    17    3   17 1
    18    8   18 1
    19    9   19 1
    20   12   20 1
    21   12   21 1
@<TRIPOS>MOLECULE
ZINC00152988
 28 29 0 0 0
SMALL
NO_CHARGES


@<TRIPOS>ATOM
      1 C           7.360    -9.284     0.482  C    
      2 C           6.317    -9.506     1.393  C    
      3 C           5.750    -8.429     2.106  C    
      4 C           6.214    -7.097     1.909  C    
      5 C           7.289    -6.889     0.987  C    
      6 C           7.841    -7.981     0.284  C    
      7 Cl          7.984    -5.380     0.636  Cl   
      8 N           5.567    -6.130     2.618  N    
      9 N           5.750    -4.838     2.599  N    
     10 C           4.989    -3.970     3.256  C    
     11 O           4.075    -4.416     3.944  O    
     12 C           5.179    -2.580     3.156  C    
     13 C           6.013    -2.030     2.142  C    
     14 C           6.202    -0.644     2.014  C    
     15 C           5.558     0.238     2.898  C    
     16 C           4.728    -0.271     3.910  C    
     17 C           4.538    -1.661     4.040  C    
     18 F           3.758    -2.048     5.017  F    
     19 F           5.729     1.527     2.778  F    
     20 Cl          4.486    -8.817     3.177  Cl   
     21 H           7.766   -10.067    -0.035  H    
     22 H           5.975   -10.459     1.531  H    
     23 H           8.601    -7.837    -0.387  H    
     24 H           4.851    -6.439     3.191  H    
     25 H           6.469    -4.488     2.063  H    
     26 H           6.484    -2.632     1.461  H    
     27 H           6.801    -0.278     1.267  H    
     28 H           4.261     0.370     4.554  H    
@<TRIPOS>BOND
     1    1    6 ar
     2    1    2 ar
     3    2    3 ar
     4    3    4 ar
     5    3   20 1
     6    4    5 ar
     7    4    8 1
     8    5    6 ar
     9    5    7 1
    10    8    9 1
    11    9   10 1
    12   10   11 2
    13   10   12 1
    14   12   17 ar
    15   12   13 ar
    16   13   14 ar
    17   14   15 ar
    18   15   16 ar
    19   15   19 1
    20   16   17 ar
    21   17   18 1
    22    1   21 1
    23    2   22 1
    24    6   23 1
    25    8   24 1
    26    9   25 1
    27   13   26 1
    28   14   27 1
    29   16   28 1
@<TRIPOS>MOLECULE
ZINC00162390
 27 28 0 0 0
SMALL
NO_CHARGES


@<TRIPOS>ATOM
      1 C           4.660    -7.112     1.289  C    
      2 C           4.969    -7.718     0.061  C    
      3 C           4.011    -7.750    -0.963  C    
      4 C           2.735    -7.177    -0.768  C    
      5 C           2.406    -6.569     0.472  C    
      6 C           3.390    -6.541     1.492  C    
      7 C           1.063    -5.968     0.717  C    
      8 C           1.032    -4.527     0.337  C    
      9 C           0.564    -4.117    -0.934  C    
     10 C           0.518    -2.753    -1.282  C    
     11 C           0.943    -1.774    -0.363  C    
     12 C           1.415    -2.167     0.903  C    
     13 C           1.464    -3.531     1.246  C    
     14 O           0.906    -0.457    -0.675  O    
     15 O           1.836    -7.230    -1.785  O    
     16 H           5.355    -7.094     2.037  H    
     17 H           5.891    -8.134    -0.084  H    
     18 H           4.244    -8.199    -1.851  H    
     19 H           3.188    -6.110     2.396  H    
     20 H           0.295    -6.527     0.165  H    
     21 H           0.785    -6.078     1.773  H    
     22 H           0.245    -4.809    -1.617  H    
     23 H           0.168    -2.477    -2.202  H    
     24 H           1.714    -1.459     1.578  H    
     25 H           1.803    -3.789     2.176  H    
     26 H           0.556    -0.415    -1.588  H    
     27 H           2.285    -7.722    -2.503  H    
@<TRIPOS>BOND
     1    1    6 ar
     2    1    2 ar
     3    2    3 ar
     4    3    4 ar
     5    4    5 ar
     6    4   15 1
     7    5    6 ar
     8    5    7 1
     9    7    8 1
    10    8   13 ar
    11    8    9 ar
    12    9   10 ar
    13   10   11 ar
    14   11   12 ar
    15   11   14 1
    16   12   13 ar
    17    1   16 1
    18    2   17 1
    19    3   18 1
    20    6   19 1
    21    7   20 1
    22    7   21 1
    23    9   22 1
    24   10   23 1
    25   12   24 1
    26   13   25 1
    27   14   26 1
    28   15   27 1
@<TRIPOS>MOLECULE
ZINC00175256
 35 37 0 0 0
SMALL
NO_CHARGES


@<TRIPOS>ATOM
      1 C          -1.786    -7.477    -3.333  C    
      2 C          -1.927    -7.060    -4.665  C    
      3 C          -1.155    -5.986    -5.154  C    
      4 C          -0.228    -5.306    -4.322  C    
      5 C          -0.109    -5.751    -2.978  C    
      6 C          -0.874    -6.826    -2.489  C    
      7 C           0.542    -4.231    -4.789  C    
      8 N           1.174    -3.408    -4.031  N    
      9 N           1.765    -2.487    -4.672  N    
     10 C           1.595    -2.665    -6.084  C    
     11 C           0.755    -3.831    -6.048  C    
     12 C           2.858    -2.879    -6.877  C    
     13 C           3.888    -3.646    -6.266  C    
     14 C           5.160    -3.759    -6.844  C    
     15 C           5.433    -3.105    -8.051  C    
     16 C           4.419    -2.383    -8.697  C    
     17 C           3.104    -2.294    -8.166  C    
     18 N           2.147    -1.694    -8.943  N    
     19 O           0.965    -1.848    -8.778  O    
     20 O           2.432    -1.064   -10.055  O    
     21 C           2.413    -1.476    -4.100  C    
     22 O           2.515    -1.370    -2.885  O    
     23 H          -2.349    -8.256    -2.977  H    
     24 H          -2.594    -7.534    -5.278  H    
     25 H          -1.300    -5.702    -6.124  H    
     26 H           0.546    -5.304    -2.334  H    
     27 H          -0.767    -7.132    -1.520  H    
     28 H           1.136    -3.432    -3.099  H    
     29 H           1.021    -1.806    -6.434  H    
     30 H           0.386    -4.260    -6.863  H    
     31 H           3.728    -4.111    -5.370  H    
     32 H           5.889    -4.305    -6.380  H    
     33 H           6.364    -3.172    -8.469  H    
     34 H           4.654    -1.963    -9.601  H    
     35 H           2.837    -0.773    -4.661  H    
@<TRIPOS>BOND
     1    1    6 ar
     2    1    2 ar
     3    2    3 ar
     4    3    4 ar
     5    4    5 ar
     6    4    7 1
     7    5    6 ar
     8    7   11 2
     9    7    8 1
    10    8    9 1
    11    9   10 1
    12    9   21 1
    13   10   11 1
    14   10   12 1
    15   12   17 ar
    16   12   13 ar
    17   13   14 ar
    18   14   15 ar
    19   15   16 ar
    20   16   17 ar
    21   17   18 1
    22   18   19 2
    23   18   20 1
    24   21   22 2
    25    1   23 1
    26    2   24 1
    27    3   25 1
    28    5   26 1
    29    6   27 1
    30    8   28 1
    31   10   29 1
    32   11   30 1
    33   13   31 1
    34   14   32 1
    35   15   33 1
    36   16   34 1
    37   21   35 1
@<TRIPOS>MOLECULE
ZINC00181968
 40 42 0 0 0
SMALL
NO_CHARGES


@<TRIPOS>ATOM
      1 C           4.381   -11.126    -0.492  C    
      2 C           3.824    -9.819    -0.126  C    
      3 C           2.549    -9.564     0.375  C    
      4 C           2.458    -8.196     0.573  C    
      5 C           3.683    -7.646     0.187  C    
      6 O           4.499    -8.645    -0.232  O    
      7 C           4.081    -6.221     0.239  C    
      8 C           4.093    -5.698     1.622  C    
      9 C           3.273    -4.657     1.935  C    
     10 N           2.503    -4.133     1.002  N    
     11 C           2.492    -4.518    -0.243  C    
     12 S           1.457    -3.757    -1.357  S    
     13 N           3.242    -5.503    -0.635  N    
     14 C           3.196    -4.066     3.269  C    
     15 C           4.942    -6.260     2.519  C    
     16 O           6.096    -5.836     2.555  O    
     17 N           4.475    -7.218     3.311  N    
     18 C           5.090    -7.934     4.302  C    
     19 C           6.490    -8.110     4.443  C    
     20 C           7.012    -8.865     5.510  C    
     21 C           6.146    -9.462     6.445  C    
     22 C           4.754    -9.313     6.303  C    
     23 C           4.233    -8.561     5.234  C    
     24 H           4.675   -11.111    -1.543  H    
     25 H           3.652   -11.927    -0.341  H    
     26 H           5.260   -11.328     0.121  H    
     27 H           1.814   -10.247     0.565  H    
     28 H           1.651    -7.685     0.943  H    
     29 H           5.093    -6.130    -0.169  H    
     30 H           1.926    -3.437     1.248  H    
     31 H           3.214    -5.756    -1.535  H    
     32 H           2.851    -4.815     3.985  H    
     33 H           2.503    -3.221     3.306  H    
     34 H           4.180    -3.706     3.577  H    
     35 H           3.525    -7.403     3.205  H    
     36 H           7.146    -7.713     3.768  H    
     37 H           8.022    -8.986     5.607  H    
     38 H           6.525   -10.006     7.222  H    
     39 H           4.122    -9.747     6.978  H    
     40 H           3.216    -8.460     5.151  H    
@<TRIPOS>BOND
     1    1    2 1
     2    2    6 1
     3    2    3 2
     4    3    4 1
     5    4    5 2
     6    5    6 1
     7    5    7 1
     8    7   13 1
     9    7    8 1
    10    8    9 2
    11    8   15 1
    12    9   10 1
    13    9   14 1
    14   10   11 1
    15   11   12 2
    16   11   13 1
    17   15   16 2
    18   15   17 1
    19   17   18 1
    20   18   23 ar
    21   18   19 ar
    22   19   20 ar
    23   20   21 ar
    24   21   22 ar
    25   22   23 ar
    26    1   24 1
    27    1   25 1
    28    1   26 1
    29    3   27 1
    30    4   28 1
    31    7   29 1
    32   10   30 1
    33   13   31 1
    34   14   32 1
    35   14   33 1
    36   14   34 1
    37   17   35 1
    38   19   36 1
    39   20   37 1
    40   21   38 1
    41   22   39 1
    42   23   40 1
@<TRIPOS>MOLECULE
ZINC00202149
 49 52 0 0 0
SMALL
NO_CHARGES


@<TRIPOS>ATOM
      1 C           2.514     0.743    -6.968  C    
      2 C           1.995     1.322    -5.794  C    
      3 C           1.331     0.521    -4.848  C    
      4 C           1.205    -0.871    -5.056  C    
      5 C           1.722    -1.445    -6.238  C    
      6 C           2.374    -0.639    -7.192  C    
      7 C           0.575    -1.651    -4.105  C    
      8 C           1.193    -2.517    -3.282  C    
      9 C           2.624    -2.777    -3.191  C    
     10 C           4.571    -2.923    -1.660  C    
     11 C           5.125    -2.568    -0.256  C    
     12 C           3.722    -0.538    -0.231  C    
     13 C           3.193    -0.884    -1.644  C    
     14 C           5.638    -0.671     1.344  C    
     15 C           7.061    -0.978     1.633  C    
     16 C           7.687    -2.213     1.915  C    
     17 C           9.064    -2.242     2.214  C    
     18 C           9.809    -1.044     2.259  C    
     19 C           9.175     0.193     2.028  C    
     20 C           7.804     0.201     1.729  C    
     21 C           6.933     1.261     1.567  C    
     22 O           7.233     2.575     1.663  O    
     23 O           5.688     0.769     1.391  O    
     24 N           3.203    -2.363    -1.871  N    
     25 N           5.095    -1.094     0.009  N    
     26 H           2.995     1.326    -7.655  H    
     27 H           2.104     2.326    -5.628  H    
     28 H           0.967     0.954    -3.996  H    
     29 H           1.628    -2.448    -6.416  H    
     30 H           2.751    -1.060    -8.047  H    
     31 H          -0.399    -1.497    -3.973  H    
     32 H           0.613    -2.995    -2.625  H    
     33 H           2.741    -3.856    -3.322  H    
     34 H           3.187    -2.299    -3.997  H    
     35 H           5.255    -2.543    -2.428  H    
     36 H           4.540    -4.013    -1.748  H    
     37 H           4.552    -3.105     0.505  H    
     38 H           6.153    -2.928    -0.231  H    
     39 H           3.737     0.551    -0.152  H    
     40 H           3.021    -0.920     0.517  H    
     41 H           2.173    -0.497    -1.722  H    
     42 H           3.805    -0.377    -2.398  H    
     43 H           5.010    -1.032     2.163  H    
     44 H           7.145    -3.080     1.931  H    
     45 H           9.524    -3.132     2.424  H    
     46 H          10.804    -1.068     2.492  H    
     47 H           9.697     1.070     2.104  H    
     48 H           2.604    -2.775    -1.151  H    
     49 H           5.704    -0.667    -0.692  H    
@<TRIPOS>BOND
     1    1    6 ar
     2    1    2 ar
     3    2    3 ar
     4    3    4 ar
     5    4    5 ar
     6    4    7 1
     7    5    6 ar
     8    7    8 2
     9    8    9 1
    10    9   24 1
    11   10   11 1
    12   10   24 1
    13   11   25 1
    14   12   13 1
    15   12   25 1
    16   13   24 1
    17   14   23 1
    18   14   15 1
    19   14   25 1
    20   15   20 ar
    21   15   16 ar
    22   16   17 ar
    23   17   18 ar
    24   18   19 ar
    25   19   20 ar
    26   20   21 1
    27   21   22 2
    28   21   23 1
    29    1   26 1
    30    2   27 1
    31    3   28 1
    32    5   29 1
    33    6   30 1
    34    7   31 1
    35    8   32 1
    36    9   33 1
    37    9   34 1
    38   10   35 1
    39   10   36 1
    40   11   37 1
    41   11   38 1
    42   12   39 1
    43   12   40 1
    44   13   41 1
    45   13   42 1
    46   14   43 1
    47   16   44 1
    48   17   45 1
    49   18   46 1
    50   19   47 1
    51   24   48 1
    52   25   49 1
@<TRIPOS>MOLECULE
ZINC00202666
 47 49 0 0 0
SMALL
NO_CHARGES


@<TRIPOS>ATOM
      1 C          -9.292     8.695     1.873  C    
      2 C          -9.361     7.137     1.903  C    
      3 C          -7.908     6.553     1.784  C    
      4 C          -7.761     5.067     2.253  C    
      5 C          -8.465     4.882     3.636  C    
      6 C          -9.911     5.427     3.608  C    
      7 O          -9.947     6.806     3.185  O    
      8 C          -6.267     4.556     2.197  C    
      9 C          -6.386     3.101     1.671  C    
     10 C          -7.653     3.137     0.959  C    
     11 O          -8.102     2.145     0.160  O    
     12 O          -8.406     4.196     1.315  O    
     13 C          -5.444     4.771     3.387  C    
     14 O          -5.317     5.927     3.779  O    
     15 N          -4.729     3.791     3.930  N    
     16 C          -3.878     3.845     4.998  C    
     17 C          -4.089     4.660     6.134  C    
     18 C          -3.147     4.681     7.179  C    
     19 C          -1.986     3.890     7.099  C    
     20 C          -1.781     3.033     5.993  C    
     21 C          -2.736     3.016     4.956  C    
     22 O          -0.649     2.279     5.795  O    
     23 C          -0.168     1.477     6.895  C    
     24 C         -10.290     6.679     0.732  C    
     25 H         -10.291     9.124     1.943  H    
     26 H          -8.829     9.046     0.948  H    
     27 H          -8.708     9.071     2.713  H    
     28 H          -7.556     6.645     0.751  H    
     29 H          -7.238     7.154     2.406  H    
     30 H          -8.480     3.825     3.916  H    
     31 H          -7.916     5.430     4.407  H    
     32 H         -10.540     4.813     2.964  H    
     33 H         -10.331     5.379     4.617  H    
     34 H          -5.756     5.112     1.397  H    
     35 H          -5.561     2.843     1.001  H    
     36 H          -6.464     2.366     2.476  H    
     37 H          -4.740     2.947     3.454  H    
     38 H          -4.931     5.233     6.218  H    
     39 H          -3.298     5.284     7.989  H    
     40 H          -1.293     3.955     7.846  H    
     41 H          -2.576     2.418     4.143  H    
     42 H           0.280     2.113     7.663  H    
     43 H           0.604     0.805     6.517  H    
     44 H          -0.969     0.870     7.331  H    
     45 H         -11.282     7.119     0.845  H    
     46 H         -10.412     5.597     0.713  H    
     47 H          -9.879     6.989    -0.231  H    
@<TRIPOS>BOND
     1    1    2 1
     2    2    7 1
     3    2    3 1
     4    2   24 1
     5    3    4 1
     6    4   12 1
     7    4    5 1
     8    4    8 1
     9    5    6 1
    10    6    7 1
    11    8    9 1
    12    8   13 1
    13    9   10 1
    14   10   11 2
    15   10   12 1
    16   13   14 2
    17   13   15 1
    18   15   16 1
    19   16   21 ar
    20   16   17 ar
    21   17   18 ar
    22   18   19 ar
    23   19   20 ar
    24   20   21 ar
    25   20   22 1
    26   22   23 1
    27    1   25 1
    28    1   26 1
    29    1   27 1
    30    3   28 1
    31    3   29 1
    32    5   30 1
    33    5   31 1
    34    6   32 1
    35    6   33 1
    36    8   34 1
    37    9   35 1
    38    9   36 1
    39   15   37 1
    40   17   38 1
    41   18   39 1
    42   19   40 1
    43   21   41 1
    44   23   42 1
    45   23   43 1
    46   23   44 1
    47   24   45 1
    48   24   46 1
    49   24   47 1
@<TRIPOS>MOLECULE
ZINC00215377
 40 42 0 0 0
SMALL
NO_CHARGES


@<TRIPOS>ATOM
      1 C           6.094   -11.592     0.753  C    
      2 C           5.254   -10.328     0.452  C    
      3 C           5.112    -9.338     1.645  C    
      4 C           4.324    -9.933     2.845  C    
      5 N           4.441    -8.159     1.172  N    
      6 C           4.481    -6.920     1.733  C    
      7 C           3.733    -5.834     1.209  C    
      8 C           2.900    -5.922     0.066  C    
      9 C           2.167    -4.804    -0.370  C    
     10 C           2.251    -3.584     0.328  C    
     11 C           3.086    -3.474     1.456  C    
     12 C           3.823    -4.593     1.893  C    
     13 N           4.630    -4.479     2.977  N    
     14 C           5.359    -5.513     3.478  C    
     15 N           5.255    -6.701     2.831  N    
     16 C           6.191    -5.351     4.629  C    
     17 C           6.454    -4.049     5.133  C    
     18 C           7.262    -3.849     6.264  C    
     19 C           7.831    -4.950     6.922  C    
     20 C           7.592    -6.250     6.445  C    
     21 C           6.782    -6.453     5.313  C    
     22 F           6.597    -7.695     4.944  F    
     23 H           7.077   -11.312     1.136  H    
     24 H           6.226   -12.169    -0.166  H    
     25 H           5.589   -12.226     1.488  H    
     26 H           5.739    -9.806    -0.381  H    
     27 H           4.260   -10.637     0.113  H    
     28 H           6.125    -9.073     1.979  H    
     29 H           3.331   -10.255     2.524  H    
     30 H           4.205    -9.187     3.634  H    
     31 H           4.853   -10.787     3.271  H    
     32 H           3.890    -8.272     0.376  H    
     33 H           2.811    -6.799    -0.453  H    
     34 H           1.564    -4.875    -1.191  H    
     35 H           1.711    -2.777     0.013  H    
     36 H           3.140    -2.584     1.959  H    
     37 H           6.062    -3.220     4.680  H    
     38 H           7.439    -2.901     6.606  H    
     39 H           8.420    -4.804     7.743  H    
     40 H           8.007    -7.048     6.933  H    
@<TRIPOS>BOND
     1    1    2 1
     2    2    3 1
     3    3    4 1
     4    3    5 1
     5    5    6 1
     6    6   15 ar
     7    6    7 ar
     8    7   12 ar
     9    7    8 ar
    10    8    9 ar
    11    9   10 ar
    12   10   11 ar
    13   11   12 ar
    14   12   13 ar
    15   13   14 ar
    16   14   15 ar
    17   14   16 1
    18   16   21 ar
    19   16   17 ar
    20   17   18 ar
    21   18   19 ar
    22   19   20 ar
    23   20   21 ar
    24   21   22 1
    25    1   23 1
    26    1   24 1
    27    1   25 1
    28    2   26 1
    29    2   27 1
    30    3   28 1
    31    4   29 1
    32    4   30 1
    33    4   31 1
    34    5   32 1
    35    8   33 1
    36    9   34 1
    37   10   35 1
    38   11   36 1
    39   17   37 1
    40   18   38 1
    41   19   39 1
    42   20   40 1
@<TRIPOS>MOLECULE
ZINC00217153
 35 37 0 0 0
SMALL
NO_CHARGES


@<TRIPOS>ATOM
      1 C           6.466   -11.742    -1.117  C    
      2 C           5.579   -10.959    -0.280  C    
      3 C           4.220   -11.205    -0.190  C    
      4 C           3.439   -10.451     0.624  C    
      5 N           4.029    -9.458     1.341  N    
      6 C           5.354    -9.218     1.248  C    
      7 N           6.122    -9.976     0.433  N    
      8 N           5.691    -8.204     2.051  N    
      9 C           4.539    -7.835     2.632  C    
     10 N           3.534    -8.613     2.191  N    
     11 S           4.308    -6.584     3.813  S    
     12 C           5.867    -5.673     3.622  C    
     13 C           5.893    -4.507     4.538  C    
     14 C           5.978    -4.698     5.937  C    
     15 C           6.002    -3.598     6.816  C    
     16 C           5.933    -2.266     6.331  C    
     17 C           5.846    -2.085     4.925  C    
     18 C           5.839    -3.183     4.044  C    
     19 N           5.954    -1.206     7.185  N    
     20 O           5.898    -0.063     6.808  O    
     21 O           6.043    -1.353     8.483  O    
     22 C           2.010   -10.718     0.715  C    
     23 H           6.949   -11.091    -1.849  H    
     24 H           5.951   -12.537    -1.660  H    
     25 H           7.239   -12.203    -0.498  H    
     26 H           3.816   -11.943    -0.726  H    
     27 H           6.714    -6.331     3.850  H    
     28 H           5.952    -5.358     2.575  H    
     29 H           6.027    -5.643     6.327  H    
     30 H           6.067    -3.783     7.822  H    
     31 H           5.790    -1.142     4.526  H    
     32 H           5.780    -3.006     3.037  H    
     33 H           1.548   -10.618    -0.268  H    
     34 H           1.505   -10.028     1.395  H    
     35 H           1.845   -11.732     1.081  H    
@<TRIPOS>BOND
     1    1    2 1
     2    2    7 2
     3    2    3 1
     4    3    4 2
     5    4    5 1
     6    4   22 1
     7    5   10 1
     8    5    6 1
     9    6    7 1
    10    6    8 2
    11    8    9 1
    12    9   10 2
    13    9   11 1
    14   11   12 1
    15   12   13 1
    16   13   18 ar
    17   13   14 ar
    18   14   15 ar
    19   15   16 ar
    20   16   17 ar
    21   16   19 1
    22   17   18 ar
    23   19   20 2
    24   19   21 1
    25    1   23 1
    26    1   24 1
    27    1   25 1
    28    3   26 1
    29   12   27 1
    30   12   28 1
    31   14   29 1
    32   15   30 1
    33   17   31 1
    34   18   32 1
    35   22   33 1
    36   22   34 1
    37   22   35 1
@<TRIPOS>MOLECULE
ZINC00226125
 27 27 0 0 0
SMALL
NO_CHARGES


@<TRIPOS>ATOM
      1 C           5.884    -8.603    -1.219  C    
      2 C           4.844    -7.725    -0.628  C    
      3 C           3.836    -7.134    -1.425  C    
      4 C           2.867    -6.293    -0.850  C    
      5 C           2.876    -6.014     0.539  C    
      6 C           3.864    -6.638     1.333  C    
      7 C           4.837    -7.477     0.761  C    
      8 N           1.987    -5.212     1.204  N    
      9 C           1.123    -4.306     0.761  C    
     10 O           1.019    -4.001    -0.421  O    
     11 C           0.301    -3.584     1.721  C    
     12 C           0.627    -2.171     1.906  C    
     13 O           1.583    -1.652     1.337  O    
     14 C          -0.158    -1.356     2.807  C    
     15 H           6.872    -8.181    -1.021  H    
     16 H           5.763    -8.703    -2.299  H    
     17 H           5.829    -9.598    -0.776  H    
     18 H           3.804    -7.308    -2.433  H    
     19 H           2.147    -5.905    -1.459  H    
     20 H           3.891    -6.471     2.343  H    
     21 H           5.547    -7.899     1.365  H    
     22 H           2.023    -5.295     2.167  H    
     23 H          -0.739    -3.664     1.391  H    
     24 H           0.363    -4.068     2.700  H    
     25 H          -1.199    -1.332     2.472  H    
     26 H           0.211    -0.326     2.847  H    
     27 H          -0.119    -1.772     3.818  H    
@<TRIPOS>BOND
     1    1    2 1
     2    2    7 ar
     3    2    3 ar
     4    3    4 ar
     5    4    5 ar
     6    5    6 ar
     7    5    8 1
     8    6    7 ar
     9    8    9 1
    10    9   10 2
    11    9   11 1
    12   11   12 1
    13   12   13 2
    14   12   14 1
    15    1   15 1
    16    1   16 1
    17    1   17 1
    18    3   18 1
    19    4   19 1
    20    6   20 1
    21    7   21 1
    22    8   22 1
    23   11   23 1
    24   11   24 1
    25   14   25 1
    26   14   26 1
    27   14   27 1
@<TRIPOS>MOLECULE
ZINC00226987
 33 34 0 0 0
SMALL
NO_CHARGES


@<TRIPOS>ATOM
      1 C           6.787    -9.794    -0.032  C    
      2 C           6.299    -8.482     0.463  C    
      3 C           7.152    -7.638     1.210  C    
      4 C           6.702    -6.395     1.687  C    
      5 C           5.380    -5.939     1.441  C    
      6 C           4.532    -6.798     0.689  C    
      7 C           4.973    -8.047     0.203  C    
      8 N           4.105    -8.799    -0.505  N    
      9 C           4.913    -4.704     1.921  C    
     10 O           3.705    -4.484     1.919  O    
     11 N           5.735    -3.786     2.436  N    
     12 C           5.433    -2.550     2.951  C    
     13 C           4.542    -1.700     2.243  C    
     14 C           4.229    -0.419     2.725  C    
     15 C           4.809     0.038     3.920  C    
     16 C           5.710    -0.781     4.622  C    
     17 C           6.051    -2.078     4.154  C    
     18 C           6.971    -2.851     4.924  C    
     19 O           7.539    -3.983     4.468  O    
     20 O           7.329    -2.487     6.177  O    
     21 H           6.161   -10.594     0.366  H    
     22 H           7.819    -9.990     0.267  H    
     23 H           6.742    -9.816    -1.123  H    
     24 H           8.115    -7.925     1.417  H    
     25 H           7.361    -5.837     2.235  H    
     26 H           3.569    -6.512     0.477  H    
     27 H           3.201    -8.477    -0.669  H    
     28 H           4.376    -9.663    -0.853  H    
     29 H           6.667    -4.039     2.504  H    
     30 H           4.127    -1.999     1.354  H    
     31 H           3.589     0.185     2.197  H    
     32 H           4.587     0.973     4.271  H    
     33 H           6.126    -0.403     5.480  H    
@<TRIPOS>BOND
     1    1    2 1
     2    2    7 ar
     3    2    3 ar
     4    3    4 ar
     5    4    5 ar
     6    5    6 ar
     7    5    9 1
     8    6    7 ar
     9    7    8 1
    10    9   10 2
    11    9   11 1
    12   11   12 1
    13   12   17 ar
    14   12   13 ar
    15   13   14 ar
    16   14   15 ar
    17   15   16 ar
    18   16   17 ar
    19   17   18 1
    20   18   19 2
    21   18   20 1
    22    1   21 1
    23    1   22 1
    24    1   23 1
    25    3   24 1
    26    4   25 1
    27    6   26 1
    28    8   27 1
    29    8   28 1
    30   11   29 1
    31   13   30 1
    32   14   31 1
    33   15   32 1
    34   16   33 1
@<TRIPOS>MOLECULE
ZINC00235816
 37 39 0 0 0
SMALL
NO_CHARGES


@<TRIPOS>ATOM
      1 C           3.806   -12.208    -2.931  C    
      2 C           4.972   -12.196    -2.143  C    
      3 C           5.194   -11.151    -1.225  C    
      4 C           4.251   -10.099    -1.081  C    
      5 C           3.079   -10.130    -1.881  C    
      6 C           2.859   -11.175    -2.800  C    
      7 C           4.472    -9.038    -0.153  C    
      8 C           4.907    -9.302     1.171  C    
      9 C           5.097    -8.255     2.091  C    
     10 C           4.864    -6.915     1.708  C    
     11 C           4.430    -6.641     0.392  C    
     12 C           4.242    -7.689    -0.526  C    
     13 S           5.073    -5.636     2.870  S    
     14 O           6.438    -5.899     3.651  O    
     15 O           5.110    -4.222     2.137  O    
     16 N           3.788    -5.694     3.967  N    
     17 C           3.619    -4.906     5.068  C    
     18 C           4.492    -3.856     5.447  C    
     19 C           4.237    -3.093     6.603  C    
     20 C           3.106    -3.365     7.396  C    
     21 C           2.230    -4.404     7.031  C    
     22 C           2.486    -5.167     5.875  C    
     23 F           1.186    -4.661     7.767  F    
     24 H           3.646   -12.968    -3.596  H    
     25 H           5.662   -12.945    -2.240  H    
     26 H           6.060   -11.154    -0.675  H    
     27 H           2.365    -9.399    -1.792  H    
     28 H           2.009   -11.187    -3.368  H    
     29 H           5.067   -10.263     1.484  H    
     30 H           5.402    -8.476     3.044  H    
     31 H           4.253    -5.680     0.093  H    
     32 H           3.942    -7.457    -1.477  H    
     33 H           3.113    -6.375     3.807  H    
     34 H           5.319    -3.629     4.889  H    
     35 H           4.877    -2.336     6.867  H    
     36 H           2.930    -2.803     8.235  H    
     37 H           1.839    -5.922     5.623  H    
@<TRIPOS>BOND
     1    1    6 ar
     2    1    2 ar
     3    2    3 ar
     4    3    4 ar
     5    4    5 ar
     6    4    7 1
     7    5    6 ar
     8    7   12 ar
     9    7    8 ar
    10    8    9 ar
    11    9   10 ar
    12   10   11 ar
    13   10   13 1
    14   11   12 ar
    15   13   14 2
    16   13   15 2
    17   13   16 1
    18   16   17 1
    19   17   22 ar
    20   17   18 ar
    21   18   19 ar
    22   19   20 ar
    23   20   21 ar
    24   21   22 ar
    25   21   23 1
    26    1   24 1
    27    2   25 1
    28    3   26 1
    29    5   27 1
    30    6   28 1
    31    8   29 1
    32    9   30 1
    33   11   31 1
    34   12   32 1
    35   16   33 1
    36   18   34 1
    37   19   35 1
    38   20   36 1
    39   22   37 1
@<TRIPOS>MOLECULE
ZINC00250301
 36 38 0 0 0
SMALL
NO_CHARGES


@<TRIPOS>ATOM
      1 C           5.239     1.222     0.979  C    
      2 C           3.849     1.896     0.872  C    
      3 C           2.760     0.891     0.950  C    
      4 N           2.704    -0.156     0.079  N    
      5 C           1.740    -1.070     0.118  C    
      6 O           1.794    -1.977    -0.700  O    
      7 C           0.715    -0.981     1.064  C    
      8 C          -0.348    -1.908     1.163  C    
      9 C          -1.347    -1.745     2.140  C    
     10 C          -1.299    -0.654     3.031  C    
     11 C          -0.244     0.275     2.943  C    
     12 C           0.759     0.114     1.968  C    
     13 N           1.782     1.014     1.886  N    
     14 Cl         -2.503    -0.463     4.204  Cl   
     15 C           2.637     3.607    -0.534  C    
     16 C           2.816     4.412    -1.752  C    
     17 C           1.974     4.457    -2.860  C    
     18 C           2.533     5.348    -3.761  C    
     19 C           3.698     5.828    -3.180  C    
     20 O           3.859     5.256    -1.963  O    
     21 N           3.779     2.674    -0.391  N    
     22 H           5.330     0.691     1.929  H    
     23 H           6.023     1.980     0.932  H    
     24 H           5.393     0.515     0.162  H    
     25 H           3.771     2.591     1.715  H    
     26 H           3.405    -0.244    -0.587  H    
     27 H          -0.406    -2.708     0.527  H    
     28 H          -2.110    -2.424     2.198  H    
     29 H          -0.205     1.068     3.588  H    
     30 H           2.588     4.287     0.319  H    
     31 H           1.702     3.044    -0.588  H    
     32 H           1.108     3.933    -2.992  H    
     33 H           2.160     5.602    -4.677  H    
     34 H           4.335     6.504    -3.603  H    
     35 H           4.637     3.225    -0.460  H    
     36 H           3.761     2.018    -1.176  H    
@<TRIPOS>BOND
     1    1    2 1
     2    2    3 1
     3    2   21 1
     4    3   13 2
     5    3    4 1
     6    4    5 1
     7    5    6 2
     8    5    7 1
     9    7   12 ar
    10    7    8 ar
    11    8    9 ar
    12    9   10 ar
    13   10   11 ar
    14   10   14 1
    15   11   12 ar
    16   12   13 1
    17   15   16 1
    18   15   21 1
    19   16   20 1
    20   16   17 2
    21   17   18 1
    22   18   19 2
    23   19   20 1
    24    1   22 1
    25    1   23 1
    26    1   24 1
    27    2   25 1
    28    4   26 1
    29    8   27 1
    30    9   28 1
    31   11   29 1
    32   15   30 1
    33   15   31 1
    34   17   32 1
    35   18   33 1
    36   19   34 1
    37   21   35 1
    38   21   36 1
@<TRIPOS>MOLECULE
ZINC00254718
 31 32 0 0 0
SMALL
NO_CHARGES


@<TRIPOS>ATOM
      1 C           1.778     1.991    -2.109  C    
      2 C           3.021     2.137    -1.212  C    
      3 O           3.569     0.830    -0.958  O    
      4 C           4.666     0.845    -0.135  C    
      5 C           5.942     0.938    -0.729  C    
      6 C           7.099     0.956     0.069  C    
      7 C           6.986     0.871     1.467  C    
      8 C           5.719     0.763     2.066  C    
      9 C           4.543     0.736     1.277  C    
     10 C           3.272     0.604     1.905  C    
     11 C           2.376    -0.419     1.524  C    
     12 C           1.117    -0.540     2.140  C    
     13 C           0.706     0.353     3.160  C    
     14 C           1.614     1.373     3.539  C    
     15 C           2.874     1.496     2.925  C    
     16 N          -0.518     0.231     3.751  N    
     17 O          -0.898     0.978     4.614  O    
     18 O          -1.366    -0.703     3.417  O    
     19 H           2.034     1.460    -3.028  H    
     20 H           1.387     2.976    -2.369  H    
     21 H           1.001     1.433    -1.581  H    
     22 H           3.751     2.771    -1.721  H    
     23 H           2.719     2.622    -0.280  H    
     24 H           6.031     0.999    -1.746  H    
     25 H           8.021     1.028    -0.367  H    
     26 H           7.827     0.882     2.049  H    
     27 H           5.663     0.684     3.086  H    
     28 H           2.637    -1.092     0.800  H    
     29 H           0.500    -1.295     1.834  H    
     30 H           1.365     2.043     4.269  H    
     31 H           3.495     2.255     3.220  H    
@<TRIPOS>BOND
     1    1    2 1
     2    2    3 1
     3    3    4 1
     4    4    9 ar
     5    4    5 ar
     6    5    6 ar
     7    6    7 ar
     8    7    8 ar
     9    8    9 ar
    10    9   10 1
    11   10   15 ar
    12   10   11 ar
    13   11   12 ar
    14   12   13 ar
    15   13   14 ar
    16   13   16 1
    17   14   15 ar
    18   16   17 2
    19   16   18 1
    20    1   19 1
    21    1   20 1
    22    1   21 1
    23    2   22 1
    24    2   23 1
    25    5   24 1
    26    6   25 1
    27    7   26 1
    28    8   27 1
    29   11   28 1
    30   12   29 1
    31   14   30 1
    32   15   31 1
@<TRIPOS>MOLECULE
ZINC00272624
 26 27 0 0 0
SMALL
NO_CHARGES


@<TRIPOS>ATOM
      1 C           4.748    -6.980    -1.050  C    
      2 C           5.770    -7.749    -0.463  C    
      3 C           6.702    -7.142     0.399  C    
      4 C           6.618    -5.762     0.663  C    
      5 C           5.596    -4.995     0.073  C    
      6 C           4.631    -5.601    -0.767  C    
      7 N           3.636    -4.908    -1.400  N    
      8 C           2.946    -3.803    -1.004  C    
      9 N           2.209    -3.133    -1.920  N    
     10 O           2.151    -3.423    -3.196  O    
     11 C           2.884    -3.319     0.295  C    
     12 C           2.779    -3.987     1.461  C    
     13 N           2.711    -3.052     2.408  N    
     14 O           2.773    -1.851     1.876  O    
     15 N           2.852    -2.077     0.612  N    
     16 N           2.686    -5.311     1.687  N    
     17 Br          8.060    -8.153     1.172  Br   
     18 H           4.083    -7.437    -1.677  H    
     19 H           5.841    -8.750    -0.666  H    
     20 H           7.309    -5.315     1.270  H    
     21 H           5.576    -3.988     0.242  H    
     22 H           3.411    -5.245    -2.281  H    
     23 H           2.873    -4.066    -3.372  H    
     24 H           2.598    -5.643     2.596  H    
     25 H           2.704    -5.935     0.944  H    
     26 H           1.687    -2.376    -1.614  H    
@<TRIPOS>BOND
     1    1    6 ar
     2    1    2 ar
     3    2    3 ar
     4    3    4 ar
     5    3   17 1
     6    4    5 ar
     7    5    6 ar
     8    6    7 1
     9    7    8 1
    10    8    9 2
    11    8   11 1
    12    9   10 1
    13   11   15 2
    14   11   12 1
    15   12   13 2
    16   12   16 1
    17   13   14 1
    18   14   15 1
    19    1   18 1
    20    2   19 1
    21    4   20 1
    22    5   21 1
    23    7   22 1
    24   10   23 1
    25   16   24 1
    26   16   25 1
    27    9   26 1
@<TRIPOS>MOLECULE
ZINC00285033
 47 49 0 0 0
SMALL
NO_CHARGES


@<TRIPOS>ATOM
      1 C           5.187    -9.222    -0.829  C    
      2 C           4.412   -10.162    -0.116  C    
      3 C           3.464    -9.695     0.815  C    
      4 N           3.309    -8.360     1.009  N    
      5 C           4.038    -7.418     0.338  C    
      6 C           5.006    -7.844    -0.605  C    
      7 C           3.801    -5.983     0.615  C    
      8 C           4.888    -3.816     1.162  C    
      9 C           6.181    -3.148     1.694  C    
     10 C           6.599    -5.107     3.136  C    
     11 C           5.303    -5.770     2.610  C    
     12 C           7.675    -2.944     3.709  C    
     13 C           7.492    -1.431     4.047  C    
     14 C           6.246    -1.160     4.939  C    
     15 C           6.114     0.354     5.280  C    
     16 C           7.374     1.014     5.583  C    
     17 C           8.578     0.468     5.343  C    
     18 C           8.767    -0.845     4.741  C    
     19 N           4.992    -5.306     1.221  N    
     20 N           6.490    -3.616     3.083  N    
     21 H           5.882    -9.544    -1.509  H    
     22 H           4.536   -11.166    -0.277  H    
     23 H           2.889   -10.354     1.345  H    
     24 H           5.569    -7.161    -1.126  H    
     25 H           3.544    -5.518    -0.340  H    
     26 H           2.935    -5.864     1.277  H    
     27 H           4.035    -3.469     1.759  H    
     28 H           4.735    -3.488     0.127  H    
     29 H           7.010    -3.385     1.019  H    
     30 H           6.024    -2.066     1.675  H    
     31 H           6.752    -5.438     4.168  H    
     32 H           7.450    -5.452     2.535  H    
     33 H           5.445    -6.855     2.631  H    
     34 H           4.477    -5.524     3.287  H    
     35 H           8.543    -3.058     3.050  H    
     36 H           7.913    -3.452     4.648  H    
     37 H           7.358    -0.884     3.109  H    
     38 H           5.332    -1.481     4.433  H    
     39 H           6.337    -1.731     5.870  H    
     40 H           5.661     0.876     4.432  H    
     41 H           5.444     0.457     6.139  H    
     42 H           7.342     1.934     5.957  H    
     43 H           9.388     0.976     5.626  H    
     44 H           9.112    -1.517     5.529  H    
     45 H           9.562    -0.765     3.992  H    
     46 H           5.794    -5.559     0.642  H    
     47 H           5.683    -3.375     3.659  H    
@<TRIPOS>BOND
     1    1    6 ar
     2    1    2 ar
     3    2    3 ar
     4    3    4 ar
     5    4    5 ar
     6    5    6 ar
     7    5    7 1
     8    7   19 1
     9    8    9 1
    10    8   19 1
    11    9   20 1
    12   10   11 1
    13   10   20 1
    14   11   19 1
    15   12   13 1
    16   12   20 1
    17   13   18 1
    18   13   14 1
    19   14   15 1
    20   15   16 1
    21   16   17 2
    22   17   18 1
    23    1   21 1
    24    2   22 1
    25    3   23 1
    26    6   24 1
    27    7   25 1
    28    7   26 1
    29    8   27 1
    30    8   28 1
    31    9   29 1
    32    9   30 1
    33   10   31 1
    34   10   32 1
    35   11   33 1
    36   11   34 1
    37   12   35 1
    38   12   36 1
    39   13   37 1
    40   14   38 1
    41   14   39 1
    42   15   40 1
    43   15   41 1
    44   16   42 1
    45   17   43 1
    46   18   44 1
    47   18   45 1
    48   19   46 1
    49   20   47 1
@<TRIPOS>MOLECULE
ZINC00297746
 35 36 0 0 0
SMALL
NO_CHARGES


@<TRIPOS>ATOM
      1 C           4.030   -10.024    -0.488  C    
      2 C           4.813    -9.172    -1.289  C    
      3 C           4.426    -7.828    -1.471  C    
      4 C           3.260    -7.319    -0.856  C    
      5 C           2.477    -8.192    -0.059  C    
      6 C           2.866    -9.533     0.132  C    
      7 O           2.934    -6.014    -1.156  O    
      8 C           2.243    -5.206    -0.185  C    
      9 C           2.195    -3.740    -0.676  C    
     10 C           0.895    -1.615    -0.700  C    
     11 C          -0.248    -0.801    -0.031  C    
     12 C           0.080    -0.505     1.455  C    
     13 C           0.427    -1.815     2.208  C    
     14 C           1.548    -2.607     1.478  C    
     15 N           1.192    -2.883     0.046  N    
     16 H           4.299   -11.003    -0.362  H    
     17 H           5.660    -9.527    -1.743  H    
     18 H           4.997    -7.222    -2.063  H    
     19 H           1.615    -7.867     0.381  H    
     20 H           2.295   -10.157     0.709  H    
     21 H           1.219    -5.569    -0.070  H    
     22 H           2.754    -5.255     0.779  H    
     23 H           3.196    -3.301    -0.608  H    
     24 H           1.933    -3.780    -1.738  H    
     25 H           0.570    -1.849    -1.720  H    
     26 H           1.796    -0.993    -0.764  H    
     27 H          -0.396     0.142    -0.566  H    
     28 H          -1.180    -1.375    -0.089  H    
     29 H           0.929     0.189     1.518  H    
     30 H          -0.788    -0.026     1.930  H    
     31 H           0.752    -1.571     3.224  H    
     32 H          -0.471    -2.442     2.278  H    
     33 H           2.487    -2.040     1.538  H    
     34 H           1.686    -3.546     2.023  H    
     35 H           0.318    -3.417     0.057  H    
@<TRIPOS>BOND
     1    1    6 ar
     2    1    2 ar
     3    2    3 ar
     4    3    4 ar
     5    4    5 ar
     6    4    7 1
     7    5    6 ar
     8    7    8 1
     9    8    9 1
    10    9   15 1
    11   10   11 1
    12   10   15 1
    13   11   12 1
    14   12   13 1
    15   13   14 1
    16   14   15 1
    17    1   16 1
    18    2   17 1
    19    3   18 1
    20    5   19 1
    21    6   20 1
    22    8   21 1
    23    8   22 1
    24    9   23 1
    25    9   24 1
    26   10   25 1
    27   10   26 1
    28   11   27 1
    29   11   28 1
    30   12   29 1
    31   12   30 1
    32   13   31 1
    33   13   32 1
    34   14   33 1
    35   14   34 1
    36   15   35 1
@<TRIPOS>MOLECULE
ZINC00300371
 36 37 0 0 0
SMALL
NO_CHARGES


@<TRIPOS>ATOM
      1 C           2.921    -8.135    -0.143  C    
      2 O           4.001    -7.388     0.422  O    
      3 C           4.537    -6.245    -0.087  C    
      4 O           4.040    -5.721    -1.233  O    
      5 C           5.581    -5.585     0.610  C    
      6 C           5.558    -5.606     2.027  C    
      7 C           6.560    -4.967     2.785  C    
      8 C           7.616    -4.314     2.123  C    
      9 C           7.651    -4.271     0.719  C    
     10 C           6.642    -4.897    -0.042  C    
     11 Cl          6.834    -4.853    -1.729  Cl   
     12 S           6.507    -4.939     4.527  S    
     13 O           7.775    -5.701     5.122  O    
     14 O           5.287    -5.783     5.104  O    
     15 N           6.424    -3.369     5.156  N    
     16 C           5.170    -2.655     5.109  C    
     17 C           5.291    -1.409     4.194  C    
     18 C           6.509    -0.532     4.597  C    
     19 C           7.807    -1.377     4.673  C    
     20 C           7.612    -2.647     5.548  C    
     21 H           2.005    -7.540    -0.106  H    
     22 H           2.777    -9.049     0.442  H    
     23 H           3.130    -8.411    -1.183  H    
     24 H           4.794    -6.072     2.520  H    
     25 H           8.367    -3.868     2.652  H    
     26 H           8.428    -3.796     0.261  H    
     27 H           4.347    -3.276     4.742  H    
     28 H           4.905    -2.337     6.122  H    
     29 H           5.404    -1.734     3.154  H    
     30 H           4.375    -0.814     4.260  H    
     31 H           6.639     0.270     3.864  H    
     32 H           6.317    -0.072     5.574  H    
     33 H           8.091    -1.669     3.657  H    
     34 H           8.617    -0.770     5.089  H    
     35 H           7.507    -2.350     6.598  H    
     36 H           8.515    -3.258     5.477  H    
@<TRIPOS>BOND
     1    1    2 1
     2    2    3 1
     3    3    4 2
     4    3    5 1
     5    5   10 ar
     6    5    6 ar
     7    6    7 ar
     8    7    8 ar
     9    7   12 1
    10    8    9 ar
    11    9   10 ar
    12   10   11 1
    13   12   13 2
    14   12   14 2
    15   12   15 1
    16   15   20 1
    17   15   16 1
    18   16   17 1
    19   17   18 1
    20   18   19 1
    21   19   20 1
    22    1   21 1
    23    1   22 1
    24    1   23 1
    25    6   24 1
    26    8   25 1
    27    9   26 1
    28   16   27 1
    29   16   28 1
    30   17   29 1
    31   17   30 1
    32   18   31 1
    33   18   32 1
    34   19   33 1
    35   19   34 1
    36   20   35 1
    37   20   36 1
@<TRIPOS>MOLECULE
ZINC00304922
 32 33 0 0 0
SMALL
NO_CHARGES


@<TRIPOS>ATOM
      1 C           2.431    -5.502     4.077  C    
      2 C           3.601    -6.010     3.373  C    
      3 C           3.428    -6.732     2.243  C    
      4 C           4.380    -7.475     1.610  C    
      5 O           5.034    -8.234     2.315  O    
      6 C           4.547    -7.510     0.214  C    
      7 C           3.929    -6.566    -0.651  C    
      8 C           4.099    -6.627    -2.048  C    
      9 C           4.900    -7.644    -2.589  C    
     10 N           5.497    -8.534    -1.759  N    
     11 C           5.354    -8.499    -0.410  C    
     12 N           4.785    -5.822     3.980  N    
     13 C           5.946    -5.332     3.469  C    
     14 C           6.095    -4.784     2.169  C    
     15 C           7.341    -4.286     1.735  C    
     16 C           8.450    -4.314     2.600  C    
     17 C           8.312    -4.837     3.901  C    
     18 C           7.066    -5.333     4.331  C    
     19 Br         10.102    -3.662     2.035  Br   
     20 H           1.904    -4.790     3.438  H    
     21 H           2.697    -4.988     5.006  H    
     22 H           1.753    -6.322     4.326  H    
     23 H           2.504    -6.804     1.870  H    
     24 H           3.347    -5.813    -0.274  H    
     25 H           3.649    -5.944    -2.663  H    
     26 H           5.038    -7.720    -3.601  H    
     27 H           5.841    -9.213     0.138  H    
     28 H           4.792    -5.998     4.939  H    
     29 H           5.299    -4.723     1.532  H    
     30 H           7.435    -3.896     0.792  H    
     31 H           9.116    -4.854     4.534  H    
     32 H           6.987    -5.708     5.282  H    
@<TRIPOS>BOND
     1    1    2 1
     2    2    3 2
     3    2   12 1
     4    3    4 1
     5    4    5 2
     6    4    6 1
     7    6   11 ar
     8    6    7 ar
     9    7    8 ar
    10    8    9 ar
    11    9   10 ar
    12   10   11 ar
    13   12   13 1
    14   13   18 ar
    15   13   14 ar
    16   14   15 ar
    17   15   16 ar
    18   16   17 ar
    19   16   19 1
    20   17   18 ar
    21    1   20 1
    22    1   21 1
    23    1   22 1
    24    3   23 1
    25    7   24 1
    26    8   25 1
    27    9   26 1
    28   11   27 1
    29   12   28 1
    30   14   29 1
    31   15   30 1
    32   17   31 1
    33   18   32 1
@<TRIPOS>MOLECULE
ZINC00305885
 22 22 0 0 0
SMALL
NO_CHARGES


@<TRIPOS>ATOM
      1 C           7.447    -7.806    -0.224  C    
      2 C           6.412    -8.955    -0.285  C    
      3 C           5.033    -8.468    -0.455  C    
      4 N           4.331    -7.760     0.436  N    
      5 C           3.136    -7.517    -0.108  C    
      6 N           3.113    -8.093    -1.324  N    
      7 N           4.259    -8.665    -1.537  N    
      8 S           1.879    -6.632     0.705  S    
      9 C           0.789    -6.280    -0.698  C    
     10 C          -0.368    -5.533    -0.260  C    
     11 O          -1.171    -6.034     0.517  O    
     12 N          -0.613    -4.325    -0.711  N    
     13 H           7.427    -7.230    -1.156  H    
     14 H           8.451    -8.218    -0.090  H    
     15 H           7.231    -7.139     0.616  H    
     16 H           6.672    -9.615    -1.119  H    
     17 H           6.471    -9.544     0.635  H    
     18 H           4.630    -7.471     1.312  H    
     19 H           1.346    -5.715    -1.452  H    
     20 H           0.448    -7.217    -1.145  H    
     21 H          -1.409    -3.849    -0.423  H    
     22 H           0.000    -3.911    -1.338  H    
@<TRIPOS>BOND
     1    1    2 1
     2    2    3 1
     3    3    7 2
     4    3    4 1
     5    4    5 1
     6    5    6 2
     7    5    8 1
     8    6    7 1
     9    8    9 1
    10    9   10 1
    11   10   11 2
    12   10   12 1
    13    1   13 1
    14    1   14 1
    15    1   15 1
    16    2   16 1
    17    2   17 1
    18    4   18 1
    19    9   19 1
    20    9   20 1
    21   12   21 1
    22   12   22 1
@<TRIPOS>MOLECULE
ZINC00306484
 26 27 0 0 0
SMALL
NO_CHARGES


@<TRIPOS>ATOM
      1 C           5.200    -6.904    -0.134  C    
      2 C           6.093    -7.139     0.928  C    
      3 C           6.020    -6.374     2.121  C    
      4 C           5.021    -5.374     2.215  C    
      5 C           4.116    -5.125     1.157  C    
      6 C           4.221    -5.903    -0.020  C    
      7 N           3.184    -4.149     1.355  N    
      8 S           2.179    -3.467     0.182  S    
      9 O           3.060    -2.787    -0.954  O    
     10 O           1.180    -4.550    -0.417  O    
     11 C           1.245    -2.192     0.897  C    
     12 C          -0.097    -1.881     0.651  C    
     13 C          -0.577    -0.778     1.380  C    
     14 C           0.370    -0.185     2.222  C    
     15 S           1.840    -1.059     2.046  S    
     16 C           6.922    -6.605     3.192  C    
     17 O           7.872    -7.568     3.134  O    
     18 O           6.895    -5.860     4.323  O    
     19 H           5.261    -7.466    -0.988  H    
     20 H           6.798    -7.872     0.810  H    
     21 H           4.944    -4.812     3.070  H    
     22 H           3.579    -5.762    -0.802  H    
     23 H           3.155    -3.746     2.239  H    
     24 H          -0.682    -2.407    -0.003  H    
     25 H          -1.538    -0.441     1.304  H    
     26 H           0.217     0.622     2.832  H    
@<TRIPOS>BOND
     1    1    6 ar
     2    1    2 ar
     3    2    3 ar
     4    3    4 ar
     5    3   16 1
     6    4    5 ar
     7    5    6 ar
     8    5    7 1
     9    7    8 1
    10    8    9 2
    11    8   10 2
    12    8   11 1
    13   11   15 1
    14   11   12 2
    15   12   13 1
    16   13   14 2
    17   14   15 1
    18   16   17 2
    19   16   18 1
    20    1   19 1
    21    2   20 1
    22    4   21 1
    23    6   22 1
    24    7   23 1
    25   12   24 1
    26   13   25 1
    27   14   26 1
@<TRIPOS>MOLECULE
ZINC00314099
 38 40 0 0 0
SMALL
NO_CHARGES


@<TRIPOS>ATOM
      1 C           4.540     4.821    -3.825  C    
      2 C           4.939     3.952    -5.050  C    
      3 C           3.846     3.907    -6.076  C    
      4 C           2.571     3.375    -5.761  C    
      5 C           1.544     3.336    -6.724  C    
      6 C           1.784     3.819    -8.023  C    
      7 C           3.046     4.339    -8.359  C    
      8 C           4.068     4.385    -7.391  C    
      9 N           5.305     2.670    -4.614  N    
     10 C           5.944     1.792    -5.329  C    
     11 C           6.226     0.566    -4.865  C    
     12 C           6.919    -0.410    -5.516  C    
     13 O           7.466    -0.364    -6.752  O    
     14 O           6.966    -1.473    -4.693  O    
     15 C           6.308    -1.120    -3.593  C    
     16 N           5.886     0.086    -3.722  N    
     17 C           6.103    -1.953    -2.495  C    
     18 C           6.731    -3.224    -2.428  C    
     19 C           6.524    -4.075    -1.326  C    
     20 C           5.685    -3.669    -0.272  C    
     21 C           5.054    -2.413    -0.320  C    
     22 C           5.269    -1.558    -1.417  C    
     23 H           4.251     5.823    -4.148  H    
     24 H           5.386     4.916    -3.141  H    
     25 H           3.709     4.377    -3.273  H    
     26 H           5.833     4.429    -5.468  H    
     27 H           2.382     3.013    -4.822  H    
     28 H           0.628     2.956    -6.481  H    
     29 H           1.039     3.792    -8.723  H    
     30 H           3.220     4.687    -9.306  H    
     31 H           4.982     4.763    -7.657  H    
     32 H           5.122     2.451    -3.723  H    
     33 H           6.247     2.039    -6.243  H    
     34 H           7.347    -3.544    -3.183  H    
     35 H           6.982    -4.989    -1.290  H    
     36 H           5.531    -4.288     0.526  H    
     37 H           4.445    -2.118     0.447  H    
     38 H           4.793    -0.652    -1.433  H    
@<TRIPOS>BOND
     1    1    2 1
     2    2    3 1
     3    2    9 1
     4    3    8 ar
     5    3    4 ar
     6    4    5 ar
     7    5    6 ar
     8    6    7 ar
     9    7    8 ar
    10    9   10 1
    11   10   11 2
    12   11   16 1
    13   11   12 1
    14   12   13 2
    15   12   14 1
    16   14   15 1
    17   15   16 2
    18   15   17 1
    19   17   22 ar
    20   17   18 ar
    21   18   19 ar
    22   19   20 ar
    23   20   21 ar
    24   21   22 ar
    25    1   23 1
    26    1   24 1
    27    1   25 1
    28    2   26 1
    29    4   27 1
    30    5   28 1
    31    6   29 1
    32    7   30 1
    33    8   31 1
    34    9   32 1
    35   10   33 1
    36   18   34 1
    37   19   35 1
    38   20   36 1
    39   21   37 1
    40   22   38 1
@<TRIPOS>MOLECULE
ZINC00314320
 34 35 0 0 0
SMALL
NO_CHARGES


@<TRIPOS>ATOM
      1 C           8.664    -7.315     2.353  C    
      2 C           7.506    -6.768     3.237  C    
      3 C           6.324    -6.508     2.418  C    
      4 N           5.695    -7.485     1.793  N    
      5 C           4.596    -7.247     1.033  C    
      6 N           4.136    -5.974     0.914  N    
      7 C           4.778    -4.964     1.558  C    
      8 N           5.877    -5.272     2.296  N    
      9 N           4.439    -3.656     1.529  N    
     10 C           3.418    -2.988     0.914  C    
     11 C           2.325    -3.572     0.224  C    
     12 C           1.331    -2.764    -0.363  C    
     13 C           1.406    -1.362    -0.261  C    
     14 C           2.482    -0.769     0.427  C    
     15 C           3.474    -1.578     1.010  C    
     16 N           3.971    -8.253     0.400  N    
     17 C           7.159    -7.606     4.388  C    
     18 O           7.535    -8.771     4.452  O    
     19 C           6.355    -7.086     5.479  C    
     20 H           8.401    -8.278     1.907  H    
     21 H           9.568    -7.445     2.953  H    
     22 H           8.890    -6.608     1.549  H    
     23 H           7.885    -5.820     3.645  H    
     24 H           5.043    -3.085     2.038  H    
     25 H           2.229    -4.584     0.145  H    
     26 H           0.547    -3.198    -0.861  H    
     27 H           0.685    -0.774    -0.686  H    
     28 H           2.541     0.247     0.504  H    
     29 H           4.249    -1.128     1.509  H    
     30 H           3.191    -8.067    -0.154  H    
     31 H           4.300    -9.165     0.482  H    
     32 H           6.868    -6.235     5.938  H    
     33 H           6.189    -7.840     6.254  H    
     34 H           5.383    -6.758     5.107  H    
@<TRIPOS>BOND
     1    1    2 1
     2    2    3 1
     3    2   17 1
     4    3    8 ar
     5    3    4 ar
     6    4    5 ar
     7    5    6 ar
     8    5   16 1
     9    6    7 ar
    10    7    8 ar
    11    7    9 1
    12    9   10 1
    13   10   15 ar
    14   10   11 ar
    15   11   12 ar
    16   12   13 ar
    17   13   14 ar
    18   14   15 ar
    19   17   18 2
    20   17   19 1
    21    1   20 1
    22    1   21 1
    23    1   22 1
    24    2   23 1
    25    9   24 1
    26   11   25 1
    27   12   26 1
    28   13   27 1
    29   14   28 1
    30   15   29 1
    31   16   30 1
    32   16   31 1
    33   19   32 1
    34   19   33 1
    35   19   34 1
@<TRIPOS>MOLECULE
ZINC00329305
 39 41 0 0 0
SMALL
NO_CHARGES


@<TRIPOS>ATOM
      1 C           3.546    -7.232    -2.290  C    
      2 C           4.378    -6.178    -2.933  C    
      3 C           5.406    -6.560    -3.825  C    
      4 C           6.202    -5.592    -4.458  C    
      5 C           6.002    -4.229    -4.183  C    
      6 C           5.001    -3.811    -3.278  C    
      7 C           4.148    -4.793    -2.685  C    
      8 N           3.120    -4.463    -1.843  N    
      9 C           2.081    -3.672    -2.098  C    
     10 O           1.998    -3.134    -3.200  O    
     11 N           1.132    -3.443    -1.175  N    
     12 C           1.053    -4.175     0.058  C    
     13 C          -0.398    -4.089     0.551  C    
     14 S          -0.957    -2.434     0.139  S    
     15 C           0.089    -2.455    -1.336  C    
     16 C           0.619    -1.083    -1.518  C    
     17 C           0.358    -0.212    -2.585  C    
     18 C           1.041     1.019    -2.526  C    
     19 C           1.867     1.163    -1.407  C    
     20 S           1.742    -0.282    -0.481  S    
     21 C           4.953    -2.356    -2.956  C    
     22 H           3.634    -7.154    -1.205  H    
     23 H           3.852    -8.242    -2.579  H    
     24 H           2.500    -7.103    -2.575  H    
     25 H           5.581    -7.548    -4.030  H    
     26 H           6.941    -5.880    -5.104  H    
     27 H           6.615    -3.544    -4.635  H    
     28 H           3.091    -4.950    -1.006  H    
     29 H           1.309    -5.234    -0.067  H    
     30 H           1.735    -3.731     0.786  H    
     31 H          -1.020    -4.822     0.029  H    
     32 H          -0.464    -4.262     1.626  H    
     33 H          -0.546    -2.735    -2.181  H    
     34 H          -0.269    -0.451    -3.356  H    
     35 H           0.947     1.743    -3.243  H    
     36 H           2.451     1.975    -1.184  H    
     37 H           5.944    -2.016    -2.649  H    
     38 H           4.264    -2.117    -2.145  H    
     39 H           4.645    -1.798    -3.851  H    
@<TRIPOS>BOND
     1    1    2 1
     2    2    7 ar
     3    2    3 ar
     4    3    4 ar
     5    4    5 ar
     6    5    6 ar
     7    6    7 ar
     8    6   21 1
     9    7    8 1
    10    8    9 1
    11    9   10 2
    12    9   11 1
    13   11   15 1
    14   11   12 1
    15   12   13 1
    16   13   14 1
    17   14   15 1
    18   15   16 1
    19   16   20 1
    20   16   17 2
    21   17   18 1
    22   18   19 2
    23   19   20 1
    24    1   22 1
    25    1   23 1
    26    1   24 1
    27    3   25 1
    28    4   26 1
    29    5   27 1
    30    8   28 1
    31   12   29 1
    32   12   30 1
    33   13   31 1
    34   13   32 1
    35   15   33 1
    36   17   34 1
    37   18   35 1
    38   19   36 1
    39   21   37 1
    40   21   38 1
    41   21   39 1
@<TRIPOS>MOLECULE
ZINC00332258
 28 29 0 0 0
SMALL
NO_CHARGES


@<TRIPOS>ATOM
      1 C           1.754    -6.651     2.858  C    
      2 C           2.500    -5.608     3.433  C    
      3 C           3.439    -4.903     2.657  C    
      4 C           3.645    -5.205     1.281  C    
      5 C           2.899    -6.289     0.739  C    
      6 C           1.958    -6.995     1.510  C    
      7 C           4.669    -4.491     0.420  C    
      8 C           4.106    -4.151    -0.949  C    
      9 C           4.762    -4.471    -2.171  C    
     10 C           4.204    -4.133    -3.418  C    
     11 C           2.973    -3.457    -3.479  C    
     12 C           2.307    -3.113    -2.291  C    
     13 C           2.870    -3.452    -1.047  C    
     14 C           5.197    -3.198     0.957  C    
     15 O           4.335    -2.257     1.419  O    
     16 S           6.072    -5.665     0.416  S    
     17 O           6.368    -2.699     0.486  O    
     18 H           1.074    -7.167     3.422  H    
     19 H           2.367    -5.368     4.422  H    
     20 H           3.987    -4.178     3.124  H    
     21 H           3.037    -6.576    -0.234  H    
     22 H           1.427    -7.764     1.092  H    
     23 H           5.666    -4.947    -2.177  H    
     24 H           4.696    -4.378    -4.281  H    
     25 H           2.567    -3.212    -4.385  H    
     26 H           1.412    -2.617    -2.331  H    
     27 H           2.358    -3.190    -0.201  H    
     28 H           6.309    -5.597     1.758  H    
@<TRIPOS>BOND
     1    1    6 ar
     2    1    2 ar
     3    2    3 ar
     4    3    4 ar
     5    4    5 ar
     6    4    7 1
     7    5    6 ar
     8    7    8 1
     9    7   14 1
    10    7   16 1
    11    8   13 ar
    12    8    9 ar
    13    9   10 ar
    14   10   11 ar
    15   11   12 ar
    16   12   13 ar
    17   14   15 2
    18   14   17 1
    19    1   18 1
    20    2   19 1
    21    3   20 1
    22    5   21 1
    23    6   22 1
    24    9   23 1
    25   10   24 1
    26   11   25 1
    27   12   26 1
    28   13   27 1
    29   16   28 1
@<TRIPOS>MOLECULE
ZINC00349233
 37 40 0 0 0
SMALL
NO_CHARGES


@<TRIPOS>ATOM
      1 C           0.177    -5.873    -6.680  C    
      2 C           0.678    -5.094    -7.734  C    
      3 C           0.909    -3.721    -7.548  C    
      4 C           0.637    -3.084    -6.306  C    
      5 C           0.158    -3.902    -5.234  C    
      6 C          -0.077    -5.282    -5.433  C    
      7 C          -0.071    -3.337    -3.961  C    
      8 C           0.178    -1.979    -3.735  C    
      9 C           0.638    -1.166    -4.781  C    
     10 C           0.860    -1.688    -6.081  C    
     11 C           1.247    -0.792    -7.078  C    
     12 O           0.649    -0.796    -8.149  O    
     13 N           2.196     0.103    -6.846  N    
     14 N           2.561     0.979    -7.690  N    
     15 C           3.480     1.865    -7.547  C    
     16 C           3.793     2.779    -8.514  C    
     17 C           3.279     3.020    -9.804  C    
     18 C           3.831     4.067   -10.572  C    
     19 C           4.881     4.858   -10.053  C    
     20 C           5.390     4.610    -8.760  C    
     21 C           4.828     3.564    -8.009  C    
     22 N           5.106     3.115    -6.780  N    
     23 C           4.307     2.107    -6.503  C    
     24 O           4.351     1.497    -5.444  O    
     25 H           0.009    -6.872    -6.817  H    
     26 H           0.881    -5.529    -8.637  H    
     27 H           1.300    -3.202    -8.334  H    
     28 H          -0.428    -5.869    -4.672  H    
     29 H          -0.411    -3.912    -3.185  H    
     30 H           0.014    -1.577    -2.808  H    
     31 H           0.781    -0.171    -4.584  H    
     32 H           2.635     0.084    -5.981  H    
     33 H           2.519     2.447   -10.179  H    
     34 H           3.470     4.254   -11.510  H    
     35 H           5.275     5.614   -10.618  H    
     36 H           6.148     5.177    -8.377  H    
     37 H           5.788     3.472    -6.190  H    
@<TRIPOS>BOND
     1    1    6 ar
     2    1    2 ar
     3    2    3 ar
     4    3    4 ar
     5    4   10 ar
     6    4    5 ar
     7    5    6 ar
     8    5    7 ar
     9    7    8 ar
    10    8    9 ar
    11    9   10 ar
    12   10   11 1
    13   11   12 2
    14   11   13 1
    15   13   14 1
    16   14   15 2
    17   15   23 1
    18   15   16 1
    19   16   21 ar
    20   16   17 ar
    21   17   18 ar
    22   18   19 ar
    23   19   20 ar
    24   20   21 ar
    25   21   22 1
    26   22   23 1
    27   23   24 2
    28    1   25 1
    29    2   26 1
    30    3   27 1
    31    6   28 1
    32    7   29 1
    33    8   30 1
    34    9   31 1
    35   13   32 1
    36   17   33 1
    37   18   34 1
    38   19   35 1
    39   20   36 1
    40   22   37 1
@<TRIPOS>MOLECULE
ZINC00351060
 35 37 0 0 0
SMALL
NO_CHARGES


@<TRIPOS>ATOM
      1 C          -3.537     6.691     8.531  C    
      2 C          -2.781     6.545     7.262  C    
      3 C          -1.384     6.458     7.268  C    
      4 S          -0.871     6.378     5.638  S    
      5 C          -2.452     6.439     4.970  C    
      6 N          -2.557     6.401     3.621  N    
      7 C          -3.486     6.322     2.681  C    
      8 O          -4.646     6.124     3.015  O    
      9 C          -3.149     6.403     1.320  C    
     10 C          -1.822     6.700     0.897  C    
     11 C          -1.492     6.795    -0.468  C    
     12 C          -2.477     6.596    -1.449  C    
     13 C          -3.796     6.301    -1.060  C    
     14 C          -4.126     6.208     0.305  C    
     15 N          -3.343     6.534     6.003  N    
     16 C          -4.682     6.712     5.806  C    
     17 C          -5.171     7.973     5.388  C    
     18 C          -6.550     8.171     5.191  C    
     19 C          -7.452     7.113     5.416  C    
     20 C          -6.976     5.857     5.843  C    
     21 C          -5.597     5.656     6.034  C    
     22 H          -4.103     7.625     8.511  H    
     23 H          -2.878     6.707     9.403  H    
     24 H          -4.231     5.858     8.641  H    
     25 H          -0.764     6.466     8.083  H    
     26 H          -1.074     6.860     1.579  H    
     27 H          -0.532     7.015    -0.748  H    
     28 H          -2.237     6.667    -2.441  H    
     29 H          -4.516     6.156    -1.774  H    
     30 H          -5.098     5.992     0.546  H    
     31 H          -4.523     8.748     5.224  H    
     32 H          -6.897     9.083     4.881  H    
     33 H          -8.453     7.257     5.265  H    
     34 H          -7.635     5.091     6.011  H    
     35 H          -5.256     4.739     6.340  H    
@<TRIPOS>BOND
     1    1    2 1
     2    2   15 1
     3    2    3 2
     4    3    4 1
     5    4    5 1
     6    5    6 2
     7    5   15 1
     8    6    7 1
     9    7    8 2
    10    7    9 1
    11    9   14 ar
    12    9   10 ar
    13   10   11 ar
    14   11   12 ar
    15   12   13 ar
    16   13   14 ar
    17   15   16 1
    18   16   21 ar
    19   16   17 ar
    20   17   18 ar
    21   18   19 ar
    22   19   20 ar
    23   20   21 ar
    24    1   22 1
    25    1   23 1
    26    1   24 1
    27    3   25 1
    28   10   26 1
    29   11   27 1
    30   12   28 1
    31   13   29 1
    32   14   30 1
    33   17   31 1
    34   18   32 1
    35   19   33 1
    36   20   34 1
    37   21   35 1
@<TRIPOS>MOLECULE
ZINC00351122
 39 40 0 0 0
SMALL
NO_CHARGES


@<TRIPOS>ATOM
      1 C          -3.787    -2.098    -9.470  C    
      2 C          -2.806    -3.234    -9.835  C    
      3 N          -1.465    -2.954    -9.380  N    
      4 C          -0.552    -2.155    -9.986  C    
      5 C           0.600    -2.168    -9.210  C    
      6 N           0.376    -2.965    -8.156  N    
      7 C          -0.880    -3.436    -8.255  C    
      8 S          -1.610    -4.542    -7.113  S    
      9 C          -0.590    -4.329    -5.624  C    
     10 C          -0.847    -2.943    -4.972  C    
     11 C          -0.853    -5.452    -4.725  C    
     12 O          -1.695    -5.364    -3.833  O    
     13 C          -0.169    -6.721    -4.888  C    
     14 N           1.722    -1.454    -9.562  N    
     15 C           1.681    -0.728   -10.703  C    
     16 O           2.681    -0.092   -11.025  O    
     17 N           0.580    -0.690   -11.496  N    
     18 C          -0.527    -1.393   -11.152  C    
     19 O          -1.537    -1.389   -11.845  O    
     20 C           0.613     0.110   -12.712  C    
     21 C           2.870    -1.533    -8.685  C    
     22 H          -3.832    -1.981    -8.382  H    
     23 H          -4.787    -2.341    -9.840  H    
     24 H          -3.467    -1.149    -9.915  H    
     25 H          -3.180    -4.157    -9.390  H    
     26 H          -2.812    -3.401   -10.914  H    
     27 H           0.462    -4.365    -5.912  H    
     28 H          -0.581    -2.143    -5.664  H    
     29 H          -0.234    -2.834    -4.071  H    
     30 H          -1.902    -2.830    -4.698  H    
     31 H          -0.354    -7.124    -5.889  H    
     32 H          -0.505    -7.465    -4.154  H    
     33 H           0.909    -6.578    -4.760  H    
     34 H           0.817     1.155   -12.463  H    
     35 H          -0.312     0.095   -13.292  H    
     36 H           1.409    -0.253   -13.367  H    
     37 H           2.598    -1.169    -7.689  H    
     38 H           3.728    -0.944    -9.023  H    
     39 H           3.201    -2.573    -8.604  H    
@<TRIPOS>BOND
     1    1    2 1
     2    2    3 1
     3    3    7 1
     4    3    4 1
     5    4   18 1
     6    4    5 2
     7    5    6 1
     8    5   14 1
     9    6    7 2
    10    7    8 1
    11    8    9 1
    12    9   10 1
    13    9   11 1
    14   11   12 2
    15   11   13 1
    16   14   15 1
    17   14   21 1
    18   15   16 2
    19   15   17 1
    20   17   18 1
    21   17   20 1
    22   18   19 2
    23    1   22 1
    24    1   23 1
    25    1   24 1
    26    2   25 1
    27    2   26 1
    28    9   27 1
    29   10   28 1
    30   10   29 1
    31   10   30 1
    32   13   31 1
    33   13   32 1
    34   13   33 1
    35   20   34 1
    36   20   35 1
    37   20   36 1
    38   21   37 1
    39   21   38 1
    40   21   39 1
@<TRIPOS>MOLECULE
ZINC00365011
 29 30 0 0 0
SMALL
NO_CHARGES


@<TRIPOS>ATOM
      1 C           6.108    -6.564     1.735  C    
      2 O           5.002    -6.732     2.637  O    
      3 C           3.900    -7.304     2.056  C    
      4 C           3.715    -8.697     2.170  C    
      5 C           2.577    -9.308     1.617  C    
      6 C           1.614    -8.527     0.955  C    
      7 C           1.788    -7.134     0.849  C    
      8 C           2.930    -6.508     1.402  C    
      9 O           3.174    -5.162     1.356  O    
     10 C           2.616    -4.065     0.773  C    
     11 O           1.529    -4.196    -0.022  O    
     12 C           3.193    -2.785     0.991  C    
     13 C           4.207    -2.600     1.967  C    
     14 C           4.771    -1.331     2.194  C    
     15 C           4.337    -0.223     1.446  C    
     16 C           3.339    -0.385     0.468  C    
     17 C           2.770    -1.655     0.247  C    
     18 F           2.938     0.642    -0.230  F    
     19 H           6.444    -7.522     1.335  H    
     20 H           6.934    -6.117     2.288  H    
     21 H           5.850    -5.896     0.910  H    
     22 H           4.410    -9.267     2.658  H    
     23 H           2.446   -10.319     1.700  H    
     24 H           0.783    -8.971     0.556  H    
     25 H           1.067    -6.590     0.377  H    
     26 H           4.541    -3.384     2.532  H    
     27 H           5.496    -1.213     2.907  H    
     28 H           4.750     0.697     1.615  H    
     29 H           2.047    -1.746    -0.471  H    
@<TRIPOS>BOND
     1    1    2 1
     2    2    3 1
     3    3    8 ar
     4    3    4 ar
     5    4    5 ar
     6    5    6 ar
     7    6    7 ar
     8    7    8 ar
     9    8    9 1
    10    9   10 1
    11   10   11 2
    12   10   12 1
    13   12   17 ar
    14   12   13 ar
    15   13   14 ar
    16   14   15 ar
    17   15   16 ar
    18   16   17 ar
    19   16   18 1
    20    1   19 1
    21    1   20 1
    22    1   21 1
    23    4   22 1
    24    5   23 1
    25    6   24 1
    26    7   25 1
    27   13   26 1
    28   14   27 1
    29   15   28 1
    30   17   29 1
@<TRIPOS>MOLECULE
ZINC00389215
 34 36 0 0 0
SMALL
NO_CHARGES


@<TRIPOS>ATOM
      1 C           5.375   -10.108    -2.682  C    
      2 C           4.640    -9.344    -3.605  C    
      3 C           4.150    -8.079    -3.241  C    
      4 C           4.391    -7.578    -1.946  C    
      5 C           5.126    -8.340    -0.997  C    
      6 C           5.618    -9.609    -1.387  C    
      7 C           5.310    -7.779     0.276  C    
      8 O           5.933    -8.424     1.112  O    
      9 N           4.813    -6.561     0.591  N    
     10 C           4.117    -5.856    -0.359  C    
     11 N           3.913    -6.359    -1.598  N    
     12 C           4.990    -5.976     1.916  C    
     13 C           4.151    -6.547     2.961  C    
     14 O           3.390    -7.473     2.699  O    
     15 N           4.278    -6.059     4.190  N    
     16 C           3.629    -6.382     5.353  C    
     17 C           2.309    -6.905     5.395  C    
     18 C           1.676    -7.178     6.623  C    
     19 C           2.348    -6.921     7.830  C    
     20 C           3.647    -6.387     7.808  C    
     21 C           4.287    -6.110     6.582  C    
     22 Cl          5.853    -5.462     6.646  Cl   
     23 Cl          0.097    -7.791     6.650  Cl   
     24 H           5.733   -11.029    -2.952  H    
     25 H           4.461    -9.713    -4.545  H    
     26 H           3.616    -7.531    -3.919  H    
     27 H           6.154   -10.186    -0.737  H    
     28 H           3.721    -4.933    -0.156  H    
     29 H           6.040    -6.075     2.209  H    
     30 H           4.789    -4.898     1.899  H    
     31 H           4.976    -5.393     4.286  H    
     32 H           1.787    -7.056     4.535  H    
     33 H           1.893    -7.107     8.727  H    
     34 H           4.120    -6.197     8.695  H    
@<TRIPOS>BOND
     1    1    6 ar
     2    1    2 ar
     3    2    3 ar
     4    3    4 ar
     5    4   11 1
     6    4    5 ar
     7    5    6 ar
     8    5    7 1
     9    7    8 2
    10    7    9 1
    11    9   10 1
    12    9   12 1
    13   10   11 2
    14   12   13 1
    15   13   14 2
    16   13   15 1
    17   15   16 1
    18   16   21 ar
    19   16   17 ar
    20   17   18 ar
    21   18   19 ar
    22   18   23 1
    23   19   20 ar
    24   20   21 ar
    25   21   22 1
    26    1   24 1
    27    2   25 1
    28    3   26 1
    29    6   27 1
    30   10   28 1
    31   12   29 1
    32   12   30 1
    33   15   31 1
    34   17   32 1
    35   19   33 1
    36   20   34 1
@<TRIPOS>MOLECULE
ZINC00390334
 45 48 0 0 0
SMALL
NO_CHARGES


@<TRIPOS>ATOM
      1 C           6.541    -3.626    -9.852  C    
      2 C           5.298    -2.893   -10.404  C    
      3 C           4.379    -2.439    -9.324  C    
      4 C           4.688    -1.296    -8.556  C    
      5 C           3.827    -0.861    -7.534  C    
      6 C           2.626    -1.555    -7.241  C    
      7 C           2.329    -2.703    -8.010  C    
      8 C           3.186    -3.137    -9.037  C    
      9 C           1.708    -1.057    -6.153  C    
     10 C           2.394    -1.048    -4.747  C    
     11 N           2.327     0.314    -4.355  N    
     12 C           2.798     0.843    -3.200  C    
     13 C           2.653     2.165    -2.969  C    
     14 C           2.032     2.960    -3.898  C    
     15 C           1.558     2.445    -5.053  C    
     16 C           1.712     1.075    -5.292  C    
     17 N           1.333     0.324    -6.349  N    
     18 C           0.758     0.828    -7.493  C    
     19 C          -0.544     0.446    -7.893  C    
     20 C          -1.112     0.959    -9.075  C    
     21 C          -0.386     1.865    -9.868  C    
     22 C           0.908     2.262    -9.480  C    
     23 C           1.474     1.748    -8.298  C    
     24 O           0.515    -1.842    -6.022  O    
     25 H           7.126    -2.972    -9.204  H    
     26 H           7.175    -3.948   -10.681  H    
     27 H           6.235    -4.509    -9.287  H    
     28 H           5.622    -2.029   -10.991  H    
     29 H           4.779    -3.568   -11.090  H    
     30 H           5.545    -0.770    -8.741  H    
     31 H           4.082    -0.025    -7.004  H    
     32 H           1.480    -3.244    -7.834  H    
     33 H           2.935    -3.973    -9.569  H    
     34 H           1.855    -1.666    -4.019  H    
     35 H           3.438    -1.376    -4.775  H    
     36 H           3.248     0.263    -2.528  H    
     37 H           2.994     2.563    -2.121  H    
     38 H           1.917     3.931    -3.714  H    
     39 H           1.097     3.029    -5.710  H    
     40 H          -1.101    -0.190    -7.321  H    
     41 H          -2.058     0.683    -9.350  H    
     42 H          -0.803     2.241   -10.723  H    
     43 H           1.433     2.930   -10.051  H    
     44 H           2.415     2.046    -8.028  H    
     45 H           0.102    -1.845    -6.910  H    
@<TRIPOS>BOND
     1    1    2 1
     2    2    3 1
     3    3    8 ar
     4    3    4 ar
     5    4    5 ar
     6    5    6 ar
     7    6    7 ar
     8    6    9 1
     9    7    8 ar
    10    9   17 1
    11    9   10 1
    12    9   24 1
    13   10   11 1
    14   11   16 1
    15   11   12 1
    16   12   13 2
    17   13   14 1
    18   14   15 2
    19   15   16 1
    20   16   17 2
    21   17   18 1
    22   18   23 ar
    23   18   19 ar
    24   19   20 ar
    25   20   21 ar
    26   21   22 ar
    27   22   23 ar
    28    1   25 1
    29    1   26 1
    30    1   27 1
    31    2   28 1
    32    2   29 1
    33    4   30 1
    34    5   31 1
    35    7   32 1
    36    8   33 1
    37   10   34 1
    38   10   35 1
    39   12   36 1
    40   13   37 1
    41   14   38 1
    42   15   39 1
    43   19   40 1
    44   20   41 1
    45   21   42 1
    46   22   43 1
    47   23   44 1
    48   24   45 1
@<TRIPOS>MOLECULE
ZINC00396636
 27 28 0 0 0
SMALL
NO_CHARGES


@<TRIPOS>ATOM
      1 C           4.674    -7.729     2.518  C    
      2 C           4.322    -9.069     2.756  C    
      3 C           3.150    -9.603     2.178  C    
      4 C           2.342    -8.795     1.358  C    
      5 C           2.693    -7.452     1.124  C    
      6 C           3.858    -6.896     1.717  C    
      7 N           4.289    -5.616     1.519  N    
      8 C           3.558    -4.502     1.291  C    
      9 O           2.206    -4.515     1.300  O    
     10 O           4.260    -3.351     1.125  O    
     11 C           3.953    -2.032     0.917  C    
     12 C           2.643    -1.504     0.836  C    
     13 C           2.435    -0.129     0.622  C    
     14 C           3.533     0.739     0.483  C    
     15 C           4.844     0.225     0.563  C    
     16 C           5.047    -1.151     0.779  C    
     17 Cl          3.282     2.392     0.223  Cl   
     18 Br          2.679   -11.377     2.489  Br   
     19 H           5.527    -7.359     2.947  H    
     20 H           4.918    -9.656     3.346  H    
     21 H           1.503    -9.186     0.920  H    
     22 H           2.109    -6.899     0.493  H    
     23 H           5.243    -5.473     1.621  H    
     24 H           1.829    -2.108     0.931  H    
     25 H           1.480     0.237     0.566  H    
     26 H           5.652     0.846     0.468  H    
     27 H           6.005    -1.511     0.839  H    
@<TRIPOS>BOND
     1    1    6 ar
     2    1    2 ar
     3    2    3 ar
     4    3    4 ar
     5    3   18 1
     6    4    5 ar
     7    5    6 ar
     8    6    7 1
     9    7    8 1
    10    8    9 2
    11    8   10 1
    12   10   11 1
    13   11   16 ar
    14   11   12 ar
    15   12   13 ar
    16   13   14 ar
    17   14   15 ar
    18   14   17 1
    19   15   16 ar
    20    1   19 1
    21    2   20 1
    22    4   21 1
    23    5   22 1
    24    7   23 1
    25   12   24 1
    26   13   25 1
    27   15   26 1
    28   16   27 1
@<TRIPOS>MOLECULE
ZINC00397301
 40 41 0 0 0
SMALL
NO_CHARGES


@<TRIPOS>ATOM
      1 C           3.946    -7.746    -0.997  C    
      2 C           4.840    -8.271     0.070  C    
      3 C           5.039    -9.669     0.189  C    
      4 C           5.879   -10.193     1.185  C    
      5 C           6.544    -9.329     2.067  C    
      6 C           6.359    -7.937     1.970  C    
      7 C           5.484    -7.397     0.990  C    
      8 N           5.293    -6.044     0.868  N    
      9 C           4.810    -5.201     1.784  C    
     10 O           4.427    -5.694     2.840  O    
     11 N           4.726    -3.868     1.568  N    
     12 C           5.262    -3.319     0.331  C    
     13 C           4.167    -2.956     2.569  C    
     14 C           5.244    -2.005     3.182  C    
     15 C           4.640    -1.074     4.267  C    
     16 C           3.408    -0.283     3.744  C    
     17 C           2.338    -1.228     3.129  C    
     18 C           2.943    -2.145     2.037  C    
     19 Cl          7.282    -6.961     3.008  Cl   
     20 H           3.117    -7.197    -0.545  H    
     21 H           3.526    -8.540    -1.622  H    
     22 H           4.506    -7.068    -1.645  H    
     23 H           4.583   -10.320    -0.456  H    
     24 H           6.018   -11.204     1.260  H    
     25 H           7.175    -9.722     2.771  H    
     26 H           5.444    -5.683    -0.021  H    
     27 H           6.317    -3.590     0.226  H    
     28 H           5.204    -2.231     0.278  H    
     29 H           4.708    -3.718    -0.519  H    
     30 H           3.770    -3.517     3.425  H    
     31 H           6.035    -2.611     3.635  H    
     32 H           5.700    -1.390     2.406  H    
     33 H           4.342    -1.672     5.133  H    
     34 H           5.408    -0.367     4.597  H    
     35 H           2.967     0.277     4.572  H    
     36 H           3.737     0.437     2.989  H    
     37 H           1.900    -1.841     3.926  H    
     38 H           1.539    -0.620     2.695  H    
     39 H           3.237    -1.523     1.186  H    
     40 H           2.169    -2.842     1.693  H    
@<TRIPOS>BOND
     1    1    2 1
     2    2    7 ar
     3    2    3 ar
     4    3    4 ar
     5    4    5 ar
     6    5    6 ar
     7    6    7 ar
     8    6   19 1
     9    7    8 1
    10    8    9 1
    11    9   10 2
    12    9   11 1
    13   11   12 1
    14   11   13 1
    15   13   18 1
    16   13   14 1
    17   14   15 1
    18   15   16 1
    19   16   17 1
    20   17   18 1
    21    1   20 1
    22    1   21 1
    23    1   22 1
    24    3   23 1
    25    4   24 1
    26    5   25 1
    27    8   26 1
    28   12   27 1
    29   12   28 1
    30   12   29 1
    31   13   30 1
    32   14   31 1
    33   14   32 1
    34   15   33 1
    35   15   34 1
    36   16   35 1
    37   16   36 1
    38   17   37 1
    39   17   38 1
    40   18   39 1
    41   18   40 1
@<TRIPOS>MOLECULE
ZINC00398307
 40 41 0 0 0
SMALL
NO_CHARGES


@<TRIPOS>ATOM
      1 C           1.078    -9.556    -0.915  C    
      2 C           1.737    -8.229    -0.899  C    
      3 C           2.956    -8.016    -0.221  C    
      4 C           3.577    -6.748    -0.228  C    
      5 C           2.950    -5.683    -0.916  C    
      6 C           1.720    -5.861    -1.588  C    
      7 C           1.135    -7.150    -1.583  C    
      8 N           1.217    -4.757    -2.226  N    
      9 C           0.019    -4.502    -2.741  C    
     10 O          -0.900    -5.299    -2.631  O    
     11 C          -0.204    -3.195    -3.382  C    
     12 C           0.677    -3.039    -4.666  C    
     13 C           0.144    -3.873    -5.861  C    
     14 C          -1.328    -3.511    -6.185  C    
     15 C          -2.246    -3.634    -4.941  C    
     16 C          -1.697    -2.820    -3.722  C    
     17 C          -2.581    -2.876    -2.529  C    
     18 O          -2.314    -2.101    -1.455  O    
     19 C           4.865    -6.563     0.480  C    
     20 O          -3.651    -3.700    -2.455  O    
     21 H           0.083    -9.473    -0.473  H    
     22 H           1.641   -10.306    -0.354  H    
     23 H           0.979    -9.902    -1.946  H    
     24 H           3.405    -8.791     0.279  H    
     25 H           3.396    -4.761    -0.926  H    
     26 H           0.272    -7.329    -2.098  H    
     27 H           1.841    -4.015    -2.289  H    
     28 H           0.149    -2.443    -2.671  H    
     29 H           0.696    -1.984    -4.962  H    
     30 H           1.713    -3.329    -4.466  H    
     31 H           0.762    -3.678    -6.743  H    
     32 H           0.218    -4.939    -5.628  H    
     33 H          -1.373    -2.483    -6.562  H    
     34 H          -1.698    -4.173    -6.972  H    
     35 H          -3.240    -3.262    -5.207  H    
     36 H          -2.347    -4.690    -4.679  H    
     37 H          -1.707    -1.767    -4.030  H    
     38 H           4.737    -6.796     1.540  H    
     39 H           5.238    -5.540     0.397  H    
     40 H           5.614    -7.236     0.059  H    
@<TRIPOS>BOND
     1    1    2 1
     2    2    7 ar
     3    2    3 ar
     4    3    4 ar
     5    4    5 ar
     6    4   19 1
     7    5    6 ar
     8    6    7 ar
     9    6    8 1
    10    8    9 1
    11    9   10 2
    12    9   11 1
    13   11   16 1
    14   11   12 1
    15   12   13 1
    16   13   14 1
    17   14   15 1
    18   15   16 1
    19   16   17 1
    20   17   18 2
    21   17   20 1
    22    1   21 1
    23    1   22 1
    24    1   23 1
    25    3   24 1
    26    5   25 1
    27    7   26 1
    28    8   27 1
    29   11   28 1
    30   12   29 1
    31   12   30 1
    32   13   31 1
    33   13   32 1
    34   14   33 1
    35   14   34 1
    36   15   35 1
    37   15   36 1
    38   16   37 1
    39   19   38 1
    40   19   39 1
    41   19   40 1
@<TRIPOS>MOLECULE
ZINC00401988
 26 26 0 0 0
SMALL
NO_CHARGES


@<TRIPOS>ATOM
      1 C           5.207    -9.363    -1.325  C    
      2 C           4.075    -8.893    -0.376  C    
      3 C           4.475    -9.099     1.111  C    
      4 N           3.781    -7.519    -0.658  N    
      5 C           2.691    -6.841    -0.237  C    
      6 O           1.735    -7.443     0.509  O    
      7 O           2.596    -5.544    -0.633  O    
      8 C           1.703    -4.523    -0.434  C    
      9 C           1.944    -3.335    -1.153  C    
     10 C           1.090    -2.227    -1.018  C    
     11 C          -0.022    -2.286    -0.153  C    
     12 C          -0.272    -3.470     0.582  C    
     13 C           0.590    -4.577     0.437  C    
     14 Cl         -1.585    -3.611     1.650  Cl   
     15 Cl         -1.016    -0.917    -0.032  Cl   
     16 H           6.121    -8.788    -1.153  H    
     17 H           4.903    -9.234    -2.367  H    
     18 H           5.423   -10.421    -1.162  H    
     19 H           3.190    -9.501    -0.593  H    
     20 H           4.706   -10.150     1.300  H    
     21 H           3.657    -8.811     1.773  H    
     22 H           5.351    -8.495     1.359  H    
     23 H           4.405    -7.040    -1.228  H    
     24 H           2.746    -3.274    -1.787  H    
     25 H           1.285    -1.377    -1.555  H    
     26 H           0.405    -5.420     0.982  H    
@<TRIPOS>BOND
     1    1    2 1
     2    2    3 1
     3    2    4 1
     4    4    5 1
     5    5    6 2
     6    5    7 1
     7    7    8 1
     8    8   13 ar
     9    8    9 ar
    10    9   10 ar
    11   10   11 ar
    12   11   12 ar
    13   11   15 1
    14   12   13 ar
    15   12   14 1
    16    1   16 1
    17    1   17 1
    18    1   18 1
    19    2   19 1
    20    3   20 1
    21    3   21 1
    22    3   22 1
    23    4   23 1
    24    9   24 1
    25   10   25 1
    26   13   26 1
@<TRIPOS>MOLECULE
ZINC00436234
 34 36 0 0 0
SMALL
NO_CHARGES


@<TRIPOS>ATOM
      1 C           3.667   -10.940     0.098  C    
      2 N           4.906   -10.302    -0.086  N    
      3 C           6.056   -11.092    -0.284  C    
      4 N           5.007    -9.116     0.293  N    
      5 C           5.452    -8.099    -0.352  C    
      6 C           5.515    -6.881     0.275  C    
      7 C           5.974    -5.692    -0.276  C    
      8 C           5.873    -4.726     0.711  C    
      9 C           5.354    -5.337     1.855  C    
     10 O           5.147    -6.644     1.559  O    
     11 C           5.070    -4.764     3.121  C    
     12 C           4.543    -5.578     4.161  C    
     13 C           4.244    -5.048     5.433  C    
     14 C           4.475    -3.684     5.671  C    
     15 C           4.992    -2.869     4.666  C    
     16 C           5.293    -3.388     3.394  C    
     17 C           5.099    -1.623     5.198  C    
     18 O           5.511    -0.620     4.636  O    
     19 N           4.676    -1.677     6.444  N    
     20 C           4.295    -2.896     6.759  C    
     21 O           3.860    -3.236     7.846  O    
     22 H           3.474   -11.618    -0.735  H    
     23 H           2.831   -10.234     0.139  H    
     24 H           3.673   -11.515     1.027  H    
     25 H           6.261   -11.685     0.609  H    
     26 H           6.946   -10.496    -0.504  H    
     27 H           5.902   -11.767    -1.126  H    
     28 H           5.761    -8.183    -1.292  H    
     29 H           6.325    -5.543    -1.225  H    
     30 H           6.140    -3.746     0.593  H    
     31 H           4.368    -6.574     4.006  H    
     32 H           3.865    -5.649     6.168  H    
     33 H           5.669    -2.757     2.687  H    
     34 H           4.649    -0.914     7.049  H    
@<TRIPOS>BOND
     1    1    2 1
     2    2    3 1
     3    2    4 1
     4    4    5 2
     5    5    6 1
     6    6   10 1
     7    6    7 2
     8    7    8 1
     9    8    9 2
    10    9   10 1
    11    9   11 1
    12   11   16 ar
    13   11   12 ar
    14   12   13 ar
    15   13   14 ar
    16   14   20 1
    17   14   15 ar
    18   15   16 ar
    19   15   17 1
    20   17   18 2
    21   17   19 1
    22   19   20 1
    23   20   21 2
    24    1   22 1
    25    1   23 1
    26    1   24 1
    27    3   25 1
    28    3   26 1
    29    3   27 1
    30    5   28 1
    31    7   29 1
    32    8   30 1
    33   12   31 1
    34   13   32 1
    35   16   33 1
    36   19   34 1
@<TRIPOS>MOLECULE
ZINC00438349
 49 50 0 0 0
SMALL
NO_CHARGES


@<TRIPOS>ATOM
      1 C           7.505    -9.190     1.078  C    
      2 C           6.186    -8.396     0.773  C    
      3 C           4.985    -9.336     1.116  C    
      4 C           6.178    -8.106    -0.769  C    
      5 C           6.215    -7.060     1.635  C    
      6 C           5.000    -6.074     1.926  C    
      7 C           4.037    -6.676     3.002  C    
      8 C           4.231    -5.716     0.620  C    
      9 N           5.617    -4.913     2.469  N    
     10 C           5.175    -3.749     2.879  C    
     11 C           3.929    -3.273     2.967  C    
     12 C           3.958    -2.005     3.440  C    
     13 O           2.886    -1.211     3.646  O    
     14 O           5.233    -1.651     3.671  O    
     15 C           6.120    -2.732     3.339  C    
     16 C           7.098    -2.265     2.215  C    
     17 C           8.083    -1.171     2.712  C    
     18 C           8.849    -1.621     3.982  C    
     19 C           7.883    -2.069     5.109  C    
     20 C           6.898    -3.166     4.622  C    
     21 H           7.558    -9.474     2.133  H    
     22 H           8.385    -8.583     0.849  H    
     23 H           7.569   -10.107     0.487  H    
     24 H           5.089   -10.303     0.617  H    
     25 H           4.042    -8.899     0.787  H    
     26 H           4.937    -9.516     2.191  H    
     27 H           7.008    -7.448    -1.041  H    
     28 H           5.252    -7.636    -1.091  H    
     29 H           6.286    -9.033    -1.339  H    
     30 H           6.602    -7.333     2.623  H    
     31 H           7.009    -6.458     1.176  H    
     32 H           3.571    -7.594     2.651  H    
     33 H           3.229    -5.986     3.251  H    
     34 H           4.582    -6.896     3.926  H    
     35 H           4.924    -5.349    -0.143  H    
     36 H           3.479    -4.943     0.785  H    
     37 H           3.709    -6.592     0.236  H    
     38 H           6.550    -4.994     2.556  H    
     39 H           3.092    -3.750     2.727  H    
     40 H           7.680    -3.119     1.858  H    
     41 H           6.531    -1.871     1.365  H    
     42 H           8.800    -0.944     1.918  H    
     43 H           7.526    -0.255     2.933  H    
     44 H           9.517    -2.452     3.727  H    
     45 H           9.467    -0.795     4.343  H    
     46 H           8.464    -2.455     5.951  H    
     47 H           7.316    -1.202     5.462  H    
     48 H           6.193    -3.392     5.428  H    
     49 H           7.467    -4.076     4.413  H    
@<TRIPOS>BOND
     1    1    2 1
     2    2    3 1
     3    2    4 1
     4    2    5 1
     5    5    6 1
     6    6    7 1
     7    6    8 1
     8    6    9 1
     9    9   10 1
    10   10   15 1
    11   10   11 2
    12   11   12 1
    13   12   13 2
    14   12   14 1
    15   14   15 1
    16   15   20 1
    17   15   16 1
    18   16   17 1
    19   17   18 1
    20   18   19 1
    21   19   20 1
    22    1   21 1
    23    1   22 1
    24    1   23 1
    25    3   24 1
    26    3   25 1
    27    3   26 1
    28    4   27 1
    29    4   28 1
    30    4   29 1
    31    5   30 1
    32    5   31 1
    33    7   32 1
    34    7   33 1
    35    7   34 1
    36    8   35 1
    37    8   36 1
    38    8   37 1
    39    9   38 1
    40   11   39 1
    41   16   40 1
    42   16   41 1
    43   17   42 1
    44   17   43 1
    45   18   44 1
    46   18   45 1
    47   19   46 1
    48   19   47 1
    49   20   48 1
    50   20   49 1
@<TRIPOS>MOLECULE
ZINC00442916
 43 45 0 0 0
SMALL
NO_CHARGES


@<TRIPOS>ATOM
      1 C           0.988     6.926     6.334  C    
      2 C           0.739     6.452     4.889  C    
      3 S          -0.865     7.039     4.290  S    
      4 C          -0.907     6.116     2.840  C    
      5 C          -1.767     5.093     2.610  C    
      6 C          -1.673     4.334     1.345  C    
      7 C          -0.924     5.070     0.284  C    
      8 C          -0.076     6.058     0.668  C    
      9 N          -0.068     6.475     1.909  N    
     10 C           0.809     6.754    -0.269  C    
     11 C           1.144     5.875    -1.501  C    
     12 C          -0.139     5.230    -2.083  C    
     13 C          -1.057     4.750    -1.054  C    
     14 O          -2.074     4.196    -1.454  O    
     15 C          -1.011     2.930     1.609  C    
     16 C          -1.130     1.950     0.490  C    
     17 C          -2.385     1.383     0.166  C    
     18 C          -2.509     0.462    -0.889  C    
     19 C          -1.377     0.092    -1.633  C    
     20 C          -0.122     0.636    -1.317  C    
     21 C           0.002     1.555    -0.260  C    
     22 C          -2.621     4.716     3.496  C    
     23 N          -3.368     4.364     4.295  N    
     24 H           0.982     8.016     6.383  H    
     25 H           1.956     6.564     6.678  H    
     26 H           0.213     6.535     6.995  H    
     27 H           1.526     6.838     4.236  H    
     28 H           0.763     5.359     4.860  H    
     29 H          -2.702     4.178     0.993  H    
     30 H           0.551     7.136     2.130  H    
     31 H           0.322     7.678    -0.592  H    
     32 H           1.754     7.027     0.212  H    
     33 H           1.645     6.477    -2.265  H    
     34 H           1.835     5.085    -1.193  H    
     35 H          -0.660     5.969    -2.697  H    
     36 H           0.155     4.400    -2.731  H    
     37 H           0.040     3.096     1.875  H    
     38 H          -1.465     2.452     2.484  H    
     39 H          -3.221     1.634     0.698  H    
     40 H          -3.418     0.061    -1.114  H    
     41 H          -1.466    -0.574    -2.404  H    
     42 H           0.699     0.366    -1.856  H    
     43 H           0.924     1.941    -0.051  H    
@<TRIPOS>BOND
     1    1    2 1
     2    2    3 1
     3    3    4 1
     4    4    9 1
     5    4    5 2
     6    5    6 1
     7    5   22 1
     8    6    7 1
     9    6   15 1
    10    7   13 1
    11    7    8 2
    12    8    9 1
    13    8   10 1
    14   10   11 1
    15   11   12 1
    16   12   13 1
    17   13   14 2
    18   15   16 1
    19   16   21 ar
    20   16   17 ar
    21   17   18 ar
    22   18   19 ar
    23   19   20 ar
    24   20   21 ar
    25   22   23 3
    26    1   24 1
    27    1   25 1
    28    1   26 1
    29    2   27 1
    30    2   28 1
    31    6   29 1
    32    9   30 1
    33   10   31 1
    34   10   32 1
    35   11   33 1
    36   11   34 1
    37   12   35 1
    38   12   36 1
    39   15   37 1
    40   15   38 1
    41   17   39 1
    42   18   40 1
    43   19   41 1
    44   20   42 1
    45   21   43 1
@<TRIPOS>MOLECULE
ZINC00444227
 29 30 0 0 0
SMALL
NO_CHARGES


@<TRIPOS>ATOM
      1 C           2.735    -1.091    -0.747  C    
      2 C           3.496     0.089    -0.815  C    
      3 C           4.225     0.524     0.310  C    
      4 C           4.185    -0.209     1.515  C    
      5 C           3.407    -1.397     1.596  C    
      6 C           2.704    -1.839     0.444  C    
      7 C           3.319    -2.173     2.745  C    
      8 C           2.854    -1.776     3.945  C    
      9 C           2.271    -0.582     4.245  C    
     10 O           1.562    -0.040     3.404  O    
     11 N           2.355    -0.126     5.494  N    
     12 C           1.814     0.996     6.073  C    
     13 C           1.396     2.158     5.378  C    
     14 C           0.865     3.248     6.093  C    
     15 N           0.758     3.183     7.443  N    
     16 C           1.153     2.096     8.150  C    
     17 C           1.700     0.986     7.481  C    
     18 Cl          5.157     0.354     2.790  Cl   
     19 H           2.211    -1.410    -1.568  H    
     20 H           3.530     0.625    -1.686  H    
     21 H           4.788     1.376     0.236  H    
     22 H           2.142    -2.696     0.470  H    
     23 H           3.567    -3.135     2.651  H    
     24 H           2.896    -2.455     4.674  H    
     25 H           2.839    -0.705     6.103  H    
     26 H           1.494     2.243     4.366  H    
     27 H           0.567     4.093     5.603  H    
     28 H           1.051     2.091     9.166  H    
     29 H           1.998     0.171     8.024  H    
@<TRIPOS>BOND
     1    1    6 ar
     2    1    2 ar
     3    2    3 ar
     4    3    4 ar
     5    4    5 ar
     6    4   18 1
     7    5    6 ar
     8    5    7 1
     9    7    8 2
    10    8    9 1
    11    9   10 2
    12    9   11 1
    13   11   12 1
    14   12   17 ar
    15   12   13 ar
    16   13   14 ar
    17   14   15 ar
    18   15   16 ar
    19   16   17 ar
    20    1   19 1
    21    2   20 1
    22    3   21 1
    23    6   22 1
    24    7   23 1
    25    8   24 1
    26   11   25 1
    27   13   26 1
    28   14   27 1
    29   16   28 1
    30   17   29 1
@<TRIPOS>MOLECULE
ZINC00444911
 26 26 0 0 0
SMALL
NO_CHARGES


@<TRIPOS>ATOM
      1 C           6.183    -3.774     3.289  C    
      2 O           5.639    -3.394     2.013  O    
      3 C           4.385    -3.900     1.782  C    
      4 C           3.272    -3.209     2.302  C    
      5 C           1.962    -3.682     2.091  C    
      6 C           1.765    -4.842     1.318  C    
      7 C           2.869    -5.518     0.768  C    
      8 C           4.190    -5.041     0.960  C    
      9 C           5.279    -5.712     0.411  C    
     10 C           5.428    -6.163    -0.849  C    
     11 C           4.632    -5.896    -1.948  C    
     12 O           3.736    -4.883    -1.979  O    
     13 Br          0.050    -5.500     1.007  Br   
     14 O           0.891    -2.989     2.587  O    
     15 C           0.606    -3.286     3.966  C    
     16 O           4.901    -6.505    -3.126  O    
     17 H           5.567    -3.406     4.112  H    
     18 H           7.174    -3.331     3.380  H    
     19 H           6.285    -4.857     3.372  H    
     20 H           3.418    -2.357     2.849  H    
     21 H           2.701    -6.368     0.224  H    
     22 H           6.052    -5.864     1.022  H    
     23 H           6.236    -6.716    -1.027  H    
     24 H           0.407    -4.351     4.115  H    
     25 H          -0.285    -2.730     4.255  H    
     26 H           1.428    -2.975     4.615  H    
@<TRIPOS>BOND
     1    1    2 1
     2    2    3 1
     3    3    8 ar
     4    3    4 ar
     5    4    5 ar
     6    5    6 ar
     7    5   14 1
     8    6    7 ar
     9    6   13 1
    10    7    8 ar
    11    8    9 1
    12    9   10 2
    13   10   11 1
    14   11   12 2
    15   11   16 1
    16   14   15 1
    17    1   17 1
    18    1   18 1
    19    1   19 1
    20    4   20 1
    21    7   21 1
    22    9   22 1
    23   10   23 1
    24   15   24 1
    25   15   25 1
    26   15   26 1
@<TRIPOS>MOLECULE
ZINC00445328
 38 40 0 0 0
SMALL
NO_CHARGES


@<TRIPOS>ATOM
      1 C          -0.717    12.552     9.581  C    
      2 N           0.101    11.433     9.162  N    
      3 C          -0.454    10.182     9.029  C    
      4 C           0.303     9.082     8.632  C    
      5 C           1.650     9.291     8.377  C    
      6 O           2.315     8.319     8.042  O    
      7 N           2.193    10.523     8.508  N    
      8 C           1.419    11.570     8.894  C    
      9 O           1.920    12.684     9.010  O    
     10 C           3.614    10.677     8.227  C    
     11 N          -0.523     8.010     8.593  N    
     12 C          -1.744     8.454     8.962  C    
     13 N          -1.716     9.769     9.227  N    
     14 C          -0.238     6.650     8.207  C    
     15 C          -0.064     6.535     6.769  C    
     16 O          -0.981     6.919     6.054  O    
     17 N           1.076     6.054     6.287  N    
     18 C           1.483     5.847     4.994  C    
     19 C           0.597     5.682     3.898  C    
     20 C           1.086     5.461     2.595  C    
     21 C           2.468     5.374     2.368  C    
     22 C           3.362     5.507     3.443  C    
     23 C           2.879     5.737     4.751  C    
     24 Cl          4.034     5.894     5.987  Cl   
     25 H          -0.312    12.969    10.506  H    
     26 H          -1.763    12.292     9.765  H    
     27 H          -0.698    13.323     8.807  H    
     28 H           4.190    10.033     8.898  H    
     29 H           3.997    11.694     8.346  H    
     30 H           3.816    10.372     7.196  H    
     31 H          -2.592     7.880     9.018  H    
     32 H           0.637     6.298     8.763  H    
     33 H          -1.068     5.989     8.485  H    
     34 H           1.749     5.864     6.956  H    
     35 H          -0.415     5.695     4.028  H    
     36 H           0.429     5.350     1.813  H    
     37 H           2.820     5.204     1.418  H    
     38 H           4.367     5.433     3.261  H    
@<TRIPOS>BOND
     1    1    2 1
     2    2    8 1
     3    2    3 1
     4    3   13 1
     5    3    4 2
     6    4    5 1
     7    4   11 1
     8    5    6 2
     9    5    7 1
    10    7    8 1
    11    7   10 1
    12    8    9 2
    13   11   12 1
    14   11   14 1
    15   12   13 2
    16   14   15 1
    17   15   16 2
    18   15   17 1
    19   17   18 1
    20   18   23 ar
    21   18   19 ar
    22   19   20 ar
    23   20   21 ar
    24   21   22 ar
    25   22   23 ar
    26   23   24 1
    27    1   25 1
    28    1   26 1
    29    1   27 1
    30   10   28 1
    31   10   29 1
    32   10   30 1
    33   12   31 1
    34   14   32 1
    35   14   33 1
    36   17   34 1
    37   19   35 1
    38   20   36 1
    39   21   37 1
    40   22   38 1
@<TRIPOS>MOLECULE
ZINC00446940
 44 46 0 0 0
SMALL
NO_CHARGES


@<TRIPOS>ATOM
      1 C           6.052   -10.328     1.507  C    
      2 C           7.071    -9.437     1.888  C    
      3 C           6.786    -8.070     2.055  C    
      4 C           5.471    -7.566     1.874  C    
      5 C           4.462    -8.478     1.476  C    
      6 C           4.750    -9.844     1.293  C    
      7 P           5.186    -5.993     2.091  P    
      8 O           5.810    -5.386     0.935  O    
      9 C           3.575    -5.521     2.099  C    
     10 C           1.886    -3.950     3.069  C    
     11 C           1.670    -2.578     3.759  C    
     12 C           2.127    -1.411     2.850  C    
     13 C           3.579    -1.629     2.361  C    
     14 C           3.741    -3.020     1.699  C    
     15 C           5.878    -5.485     3.453  C    
     16 C           5.529    -6.082     4.690  C    
     17 C           6.130    -5.660     5.889  C    
     18 C           7.079    -4.621     5.877  C    
     19 C           7.426    -4.009     4.659  C    
     20 C           6.833    -4.439     3.458  C    
     21 N           3.309    -4.130     2.621  N    
     22 H           6.259   -11.320     1.378  H    
     23 H           8.020    -9.787     2.042  H    
     24 H           7.560    -7.453     2.324  H    
     25 H           3.503    -8.169     1.296  H    
     26 H           4.012   -10.488     0.999  H    
     27 H           3.162    -5.645     1.093  H    
     28 H           3.076    -6.244     2.746  H    
     29 H           1.623    -4.720     3.799  H    
     30 H           1.200    -4.048     2.220  H    
     31 H           0.612    -2.454     4.005  H    
     32 H           2.237    -2.553     4.695  H    
     33 H           1.460    -1.337     1.987  H    
     34 H           2.067    -0.469     3.404  H    
     35 H           3.844    -0.849     1.643  H    
     36 H           4.266    -1.553     3.210  H    
     37 H           3.168    -3.053     0.766  H    
     38 H           4.796    -3.116     1.441  H    
     39 H           4.842    -6.842     4.736  H    
     40 H           5.883    -6.110     6.774  H    
     41 H           7.515    -4.313     6.748  H    
     42 H           8.114    -3.253     4.649  H    
     43 H           7.114    -3.967     2.593  H    
     44 H           3.870    -4.032     3.471  H    
@<TRIPOS>BOND
     1    1    6 ar
     2    1    2 ar
     3    2    3 ar
     4    3    4 ar
     5    4    5 ar
     6    4    7 1
     7    5    6 ar
     8    7    8 2
     9    7    9 1
    10    7   15 1
    11    9   21 1
    12   10   11 1
    13   10   21 1
    14   11   12 1
    15   12   13 1
    16   13   14 1
    17   14   21 1
    18   15   20 ar
    19   15   16 ar
    20   16   17 ar
    21   17   18 ar
    22   18   19 ar
    23   19   20 ar
    24    1   22 1
    25    2   23 1
    26    3   24 1
    27    5   25 1
    28    6   26 1
    29    9   27 1
    30    9   28 1
    31   10   29 1
    32   10   30 1
    33   11   31 1
    34   11   32 1
    35   12   33 1
    36   12   34 1
    37   13   35 1
    38   13   36 1
    39   14   37 1
    40   14   38 1
    41   16   39 1
    42   17   40 1
    43   18   41 1
    44   19   42 1
    45   20   43 1
    46   21   44 1
@<TRIPOS>MOLECULE
ZINC00450185
 30 30 0 0 0
SMALL
NO_CHARGES


@<TRIPOS>ATOM
      1 C           3.197    -4.351    -0.365  C    
      2 S           4.245    -5.807    -0.159  S    
      3 O           3.254    -7.049    -0.240  O    
      4 O           5.240    -5.878    -1.399  O    
      5 N           5.113    -5.867     1.293  N    
      6 C           5.707    -7.103     1.732  C    
      7 C           5.301    -7.472     3.079  C    
      8 O           4.118    -7.655     3.338  O    
      9 N           6.184    -7.618     4.045  N    
     10 C           5.410    -4.689     1.921  C    
     11 C           4.456    -4.084     2.764  C    
     12 C           4.747    -2.874     3.408  C    
     13 C           6.000    -2.253     3.226  C    
     14 C           6.990    -2.844     2.386  C    
     15 C           6.665    -4.068     1.744  C    
     16 C           8.329    -2.206     2.185  C    
     17 F           8.986    -2.086     3.386  F    
     18 F           9.184    -2.892     1.355  F    
     19 F           8.183    -0.958     1.633  F    
     20 Cl          6.246    -0.789     4.055  Cl   
     21 H           2.684    -4.401    -1.328  H    
     22 H           3.811    -3.450    -0.336  H    
     23 H           2.459    -4.310     0.439  H    
     24 H           5.433    -7.927     1.071  H    
     25 H           6.796    -7.014     1.680  H    
     26 H           5.890    -7.856     4.942  H    
     27 H           7.131    -7.487     3.863  H    
     28 H           3.545    -4.525     2.911  H    
     29 H           4.040    -2.448     4.014  H    
     30 H           7.346    -4.517     1.127  H    
@<TRIPOS>BOND
     1    1    2 1
     2    2    3 2
     3    2    4 2
     4    2    5 1
     5    5    6 1
     6    5   10 1
     7    6    7 1
     8    7    8 2
     9    7    9 1
    10   10   15 ar
    11   10   11 ar
    12   11   12 ar
    13   12   13 ar
    14   13   14 ar
    15   13   20 1
    16   14   15 ar
    17   14   16 1
    18   16   17 1
    19   16   18 1
    20   16   19 1
    21    1   21 1
    22    1   22 1
    23    1   23 1
    24    6   24 1
    25    6   25 1
    26    9   26 1
    27    9   27 1
    28   11   28 1
    29   12   29 1
    30   15   30 1
@<TRIPOS>MOLECULE
ZINC00472325
 33 34 0 0 0
SMALL
NO_CHARGES


@<TRIPOS>ATOM
      1 C          10.334     5.372    -0.306  C    
      2 C           9.890     5.660     1.148  C    
      3 C           8.649     4.930     1.524  C    
      4 C           7.427     5.619     1.713  C    
      5 C           6.258     4.923     2.068  C    
      6 C           6.290     3.525     2.251  C    
      7 C           7.503     2.828     2.057  C    
      8 C           8.671     3.525     1.700  C    
      9 S           4.829     2.667     2.662  S    
     10 O           5.199     1.293     3.379  O    
     11 O           3.955     3.590     3.621  O    
     12 N           3.991     2.375     1.223  N    
     13 C           2.762     1.797     1.081  C    
     14 C           2.048     1.214     2.159  C    
     15 C           0.785     0.629     1.957  C    
     16 C           0.213     0.615     0.672  C    
     17 C           0.903     1.194    -0.407  C    
     18 C           2.171     1.778    -0.211  C    
     19 Cl          2.944     2.460    -1.566  Cl   
     20 H          10.580     4.315    -0.436  H    
     21 H          11.217     5.965    -0.553  H    
     22 H           9.535     5.633    -1.005  H    
     23 H          10.694     5.376     1.835  H    
     24 H           9.750     6.740     1.246  H    
     25 H           7.379     6.634     1.587  H    
     26 H           5.386     5.439     2.188  H    
     27 H           7.543     1.810     2.171  H    
     28 H           9.542     3.001     1.571  H    
     29 H           4.415     2.695     0.408  H    
     30 H           2.438     1.205     3.103  H    
     31 H           0.281     0.210     2.742  H    
     32 H          -0.707     0.193     0.525  H    
     33 H           0.476     1.184    -1.336  H    
@<TRIPOS>BOND
     1    1    2 1
     2    2    3 1
     3    3    8 ar
     4    3    4 ar
     5    4    5 ar
     6    5    6 ar
     7    6    7 ar
     8    6    9 1
     9    7    8 ar
    10    9   10 2
    11    9   11 2
    12    9   12 1
    13   12   13 1
    14   13   18 ar
    15   13   14 ar
    16   14   15 ar
    17   15   16 ar
    18   16   17 ar
    19   17   18 ar
    20   18   19 1
    21    1   20 1
    22    1   21 1
    23    1   22 1
    24    2   23 1
    25    2   24 1
    26    4   25 1
    27    5   26 1
    28    7   27 1
    29    8   28 1
    30   12   29 1
    31   14   30 1
    32   15   31 1
    33   16   32 1
    34   17   33 1
@<TRIPOS>MOLECULE
ZINC00473324
 34 35 0 0 0
SMALL
NO_CHARGES


@<TRIPOS>ATOM
      1 C           5.635    -8.315     0.264  C    
      2 C           5.508    -7.050     0.869  C    
      3 C           4.471    -6.166     0.489  C    
      4 C           3.594    -6.555    -0.558  C    
      5 C           3.718    -7.825    -1.158  C    
      6 C           4.735    -8.707    -0.743  C    
      7 F           4.852    -9.882    -1.303  F    
      8 F           2.689    -5.745    -1.042  F    
      9 N           4.447    -4.959     1.132  N    
     10 C           3.407    -4.229     1.501  C    
     11 O           2.252    -4.604     1.339  O    
     12 N           3.681    -3.087     2.108  N    
     13 C           2.748    -2.112     2.599  C    
     14 C           2.936    -0.791     1.798  C    
     15 C           2.050     0.354     2.356  C    
     16 C           2.291     0.577     3.872  C    
     17 C           2.108    -0.736     4.679  C    
     18 C           2.991    -1.884     4.118  C    
     19 H           6.381    -8.949     0.566  H    
     20 H           6.171    -6.782     1.601  H    
     21 H           3.082    -8.100    -1.910  H    
     22 H           5.308    -4.631     1.431  H    
     23 H           4.620    -2.867     2.212  H    
     24 H           1.714    -2.447     2.466  H    
     25 H           3.986    -0.481     1.840  H    
     26 H           2.678    -0.963     0.748  H    
     27 H           2.274     1.278     1.817  H    
     28 H           0.997     0.109     2.189  H    
     29 H           3.305     0.958     4.027  H    
     30 H           1.588     1.329     4.242  H    
     31 H           2.373    -0.554     5.724  H    
     32 H           1.057    -1.036     4.643  H    
     33 H           2.766    -2.804     4.666  H    
     34 H           4.042    -1.637     4.291  H    
@<TRIPOS>BOND
     1    1    6 ar
     2    1    2 ar
     3    2    3 ar
     4    3    4 ar
     5    3    9 1
     6    4    5 ar
     7    4    8 1
     8    5    6 ar
     9    6    7 1
    10    9   10 1
    11   10   11 2
    12   10   12 1
    13   12   13 1
    14   13   18 1
    15   13   14 1
    16   14   15 1
    17   15   16 1
    18   16   17 1
    19   17   18 1
    20    1   19 1
    21    2   20 1
    22    5   21 1
    23    9   22 1
    24   12   23 1
    25   13   24 1
    26   14   25 1
    27   14   26 1
    28   15   27 1
    29   15   28 1
    30   16   29 1
    31   16   30 1
    32   17   31 1
    33   17   32 1
    34   18   33 1
    35   18   34 1
@<TRIPOS>MOLECULE
ZINC00473521
 26 27 0 0 0
SMALL
NO_CHARGES


@<TRIPOS>ATOM
      1 C           6.052   -10.666    -1.923  C    
      2 O           5.959    -9.328    -1.429  O    
      3 C           4.822    -8.652    -1.124  C    
      4 O           3.611    -9.243    -1.278  O    
      5 N           4.974    -7.388    -0.674  N    
      6 C           4.008    -6.512    -0.324  C    
      7 N           4.297    -5.265     0.103  N    
      8 C           3.250    -4.455     0.433  C    
      9 C           2.007    -5.088     0.261  C    
     10 S           2.296    -6.676    -0.315  S    
     11 C           3.456    -3.115     0.888  C    
     12 C           2.434    -2.371     1.539  C    
     13 C           2.654    -1.049     1.969  C    
     14 C           3.903    -0.439     1.766  C    
     15 C           4.935    -1.155     1.138  C    
     16 C           4.709    -2.479     0.709  C    
     17 F           4.105     0.788     2.157  F    
     18 H           5.620   -11.366    -1.205  H    
     19 H           7.104   -10.914    -2.070  H    
     20 H           5.531   -10.754    -2.879  H    
     21 H           5.890    -7.069    -0.598  H    
     22 H           1.076    -4.697     0.425  H    
     23 H           1.519    -2.788     1.722  H    
     24 H           1.900    -0.530     2.431  H    
     25 H           5.850    -0.718     0.989  H    
     26 H           5.482    -2.971     0.251  H    
@<TRIPOS>BOND
     1    1    2 1
     2    2    3 1
     3    3    4 2
     4    3    5 1
     5    5    6 1
     6    6   10 1
     7    6    7 2
     8    7    8 1
     9    8    9 2
    10    8   11 1
    11    9   10 1
    12   11   16 ar
    13   11   12 ar
    14   12   13 ar
    15   13   14 ar
    16   14   15 ar
    17   14   17 1
    18   15   16 ar
    19    1   18 1
    20    1   19 1
    21    1   20 1
    22    5   21 1
    23    9   22 1
    24   12   23 1
    25   13   24 1
    26   15   25 1
    27   16   26 1
@<TRIPOS>MOLECULE
ZINC00476938
 31 32 0 0 0
SMALL
NO_CHARGES


@<TRIPOS>ATOM
      1 C           3.851    -9.074     0.563  C    
      2 C           4.465    -7.815     1.070  C    
      3 C           4.692    -7.716     2.464  C    
      4 C           5.263    -6.568     3.035  C    
      5 C           5.624    -5.468     2.226  C    
      6 C           5.413    -5.580     0.833  C    
      7 C           4.840    -6.726     0.218  C    
      8 N           4.680    -6.720    -1.146  N    
      9 O           4.140    -7.590    -1.771  O    
     10 O           5.077    -5.732    -1.899  O    
     11 N           6.162    -4.277     2.657  N    
     12 C           6.438    -3.798     3.867  C    
     13 O           6.209    -4.468     4.867  O    
     14 C           6.957    -2.504     4.034  C    
     15 C           7.584    -1.804     2.967  C    
     16 C           8.078    -0.496     3.139  C    
     17 C           7.970     0.141     4.389  C    
     18 C           7.367    -0.530     5.467  C    
     19 C           6.867    -1.835     5.289  C    
     20 F           7.266     0.061     6.630  F    
     21 H           2.892    -8.854     0.097  H    
     22 H           3.670    -9.805     1.350  H    
     23 H           4.513    -9.537    -0.168  H    
     24 H           4.439    -8.486     3.090  H    
     25 H           5.405    -6.561     4.046  H    
     26 H           5.681    -4.782     0.250  H    
     27 H           6.348    -3.658     1.936  H    
     28 H           7.707    -2.240     2.048  H    
     29 H           8.527    -0.010     2.358  H    
     30 H           8.331     1.092     4.509  H    
     31 H           6.412    -2.284     6.090  H    
@<TRIPOS>BOND
     1    1    2 1
     2    2    7 ar
     3    2    3 ar
     4    3    4 ar
     5    4    5 ar
     6    5    6 ar
     7    5   11 1
     8    6    7 ar
     9    7    8 1
    10    8    9 2
    11    8   10 1
    12   11   12 1
    13   12   13 2
    14   12   14 1
    15   14   19 ar
    16   14   15 ar
    17   15   16 ar
    18   16   17 ar
    19   17   18 ar
    20   18   19 ar
    21   18   20 1
    22    1   21 1
    23    1   22 1
    24    1   23 1
    25    3   24 1
    26    4   25 1
    27    6   26 1
    28   11   27 1
    29   15   28 1
    30   16   29 1
    31   17   30 1
    32   19   31 1
@<TRIPOS>MOLECULE
ZINC00480134
 22 22 0 0 0
SMALL
NO_CHARGES


@<TRIPOS>ATOM
      1 C           7.356    -1.566     6.060  C    
      2 N           6.433    -2.343     5.302  N    
      3 C           6.749    -3.143     4.297  C    
      4 O           7.907    -3.270     3.918  O    
      5 N           5.760    -3.795     3.714  N    
      6 N           5.921    -4.612     2.708  N    
      7 C           4.924    -5.284     2.092  C    
      8 C           3.556    -5.212     2.448  C    
      9 C           2.614    -5.963     1.722  C    
     10 C           3.033    -6.775     0.653  C    
     11 C           4.401    -6.820     0.331  C    
     12 N           5.283    -6.083     1.052  N    
     13 Cl          4.970    -7.778    -0.939  Cl   
     14 H           8.068    -2.217     6.571  H    
     15 H           6.807    -0.992     6.807  H    
     16 H           7.897    -0.871     5.413  H    
     17 H           5.496    -2.280     5.545  H    
     18 H           4.862    -3.655     4.055  H    
     19 H           6.823    -4.744     2.372  H    
     20 H           3.242    -4.625     3.223  H    
     21 H           1.624    -5.918     1.971  H    
     22 H           2.350    -7.322     0.123  H    
@<TRIPOS>BOND
     1    1    2 1
     2    2    3 1
     3    3    4 2
     4    3    5 1
     5    5    6 1
     6    6    7 1
     7    7   12 ar
     8    7    8 ar
     9    8    9 ar
    10    9   10 ar
    11   10   11 ar
    12   11   12 ar
    13   11   13 1
    14    1   14 1
    15    1   15 1
    16    1   16 1
    17    2   17 1
    18    5   18 1
    19    6   19 1
    20    8   20 1
    21    9   21 1
    22   10   22 1
@<TRIPOS>MOLECULE
ZINC00480881
 27 28 0 0 0
SMALL
NO_CHARGES


@<TRIPOS>ATOM
      1 C           3.698    -6.348     4.942  C    
      2 C           2.753    -6.821     4.015  C    
      3 C           2.927    -6.567     2.641  C    
      4 C           4.049    -5.836     2.176  C    
      5 C           4.996    -5.374     3.124  C    
      6 C           4.822    -5.627     4.496  C    
      7 C           4.224    -5.578     0.718  C    
      8 C           3.175    -4.574     0.156  C    
      9 C           3.213    -4.267    -1.302  C    
     10 C           4.175    -4.788    -2.205  C    
     11 C           4.018    -4.404    -3.534  C    
     12 S           2.645    -3.382    -3.607  S    
     13 C           2.260    -3.434    -1.930  C    
     14 C           1.164    -2.730    -1.392  C    
     15 O           0.976    -2.591    -0.055  O    
     16 Cl          4.986    -4.851    -4.842  Cl   
     17 O           0.276    -2.107    -2.209  O    
     18 H           3.572    -6.530     5.940  H    
     19 H           1.940    -7.351     4.339  H    
     20 H           2.231    -6.925     1.982  H    
     21 H           5.821    -4.847     2.821  H    
     22 H           5.511    -5.286     5.172  H    
     23 H           5.222    -5.173     0.523  H    
     24 H           4.147    -6.531     0.186  H    
     25 H           2.178    -4.966     0.375  H    
     26 H           3.297    -3.631     0.697  H    
     27 H           4.938    -5.405    -1.927  H    
@<TRIPOS>BOND
     1    1    6 ar
     2    1    2 ar
     3    2    3 ar
     4    3    4 ar
     5    4    5 ar
     6    4    7 1
     7    5    6 ar
     8    7    8 1
     9    8    9 1
    10    9   13 2
    11    9   10 1
    12   10   11 2
    13   11   12 1
    14   11   16 1
    15   12   13 1
    16   13   14 1
    17   14   15 2
    18   14   17 1
    19    1   18 1
    20    2   19 1
    21    3   20 1
    22    5   21 1
    23    6   22 1
    24    7   23 1
    25    7   24 1
    26    8   25 1
    27    8   26 1
    28   10   27 1
@<TRIPOS>MOLECULE
ZINC00496099
 39 41 0 0 0
SMALL
NO_CHARGES


@<TRIPOS>ATOM
      1 C           2.871     8.408    -0.401  C    
      2 C           3.416     7.218     0.454  C    
      3 C           4.433     6.337    -0.361  C    
      4 C           3.778     5.350    -1.259  C    
      5 C           2.412     5.061    -1.092  C    
      6 S           1.922     3.939    -2.299  S    
      7 C           3.480     3.782    -3.000  C    
      8 C           4.388     4.603    -2.302  C    
      9 C           5.734     4.549    -2.741  C    
     10 N           6.059     3.745    -3.790  N    
     11 C           5.140     2.988    -4.450  C    
     12 N           3.845     3.000    -4.041  N    
     13 S           5.587     1.921    -5.746  S    
     14 C           6.747     2.991    -6.638  C    
     15 C           7.216     2.309    -7.851  C    
     16 O           6.327     1.968    -8.809  O    
     17 O           8.546     2.073    -8.026  O    
     18 C           9.145     1.448    -9.164  C    
     19 N           6.748     5.211    -2.156  N    
     20 C           1.558     5.660    -0.053  C    
     21 O           2.327     6.384     0.932  O    
     22 C           4.100     7.794     1.728  C    
     23 H           2.448     8.057    -1.343  H    
     24 H           3.669     9.113    -0.639  H    
     25 H           2.091     8.940     0.143  H    
     26 H           5.066     7.002    -0.953  H    
     27 H           5.075     5.771     0.320  H    
     28 H           6.243     3.918    -6.925  H    
     29 H           7.594     3.235    -5.989  H    
     30 H           8.783     0.421    -9.271  H    
     31 H          10.230     1.426    -9.029  H    
     32 H           8.911     2.013   -10.070  H    
     33 H           7.649     5.107    -2.505  H    
     34 H           6.597     5.767    -1.374  H    
     35 H           0.824     6.320    -0.520  H    
     36 H           1.017     4.866     0.461  H    
     37 H           4.970     8.402     1.463  H    
     38 H           4.430     6.984     2.381  H    
     39 H           3.398     8.417     2.289  H    
@<TRIPOS>BOND
     1    1    2 1
     2    2   21 1
     3    2    3 1
     4    2   22 1
     5    3    4 1
     6    4    8 1
     7    4    5 2
     8    5    6 1
     9    5   20 1
    10    6    7 1
    11    7   12 ar
    12    7    8 ar
    13    8    9 ar
    14    9   10 ar
    15    9   19 1
    16   10   11 ar
    17   11   12 ar
    18   11   13 1
    19   13   14 1
    20   14   15 1
    21   15   16 2
    22   15   17 1
    23   17   18 1
    24   20   21 1
    25    1   23 1
    26    1   24 1
    27    1   25 1
    28    3   26 1
    29    3   27 1
    30   14   28 1
    31   14   29 1
    32   18   30 1
    33   18   31 1
    34   18   32 1
    35   19   33 1
    36   19   34 1
    37   20   35 1
    38   20   36 1
    39   22   37 1
    40   22   38 1
    41   22   39 1
@<TRIPOS>MOLECULE
ZINC00532843
 35 37 0 0 0
SMALL
NO_CHARGES


@<TRIPOS>ATOM
      1 C           4.058    -9.562    -0.282  C    
      2 C           3.704   -10.719    -1.005  C    
      3 C           4.334   -11.947    -0.727  C    
      4 C           5.317   -12.015     0.277  C    
      5 C           5.668   -10.857     1.001  C    
      6 C           5.046    -9.614     0.731  C    
      7 C           5.452    -8.394     1.477  C    
      8 S           4.997    -8.525     3.225  S    
      9 C           5.633    -6.992     3.752  C    
     10 N           6.882    -6.560     3.512  N    
     11 N           7.025    -5.406     4.073  N    
     12 C           5.879    -5.060     4.691  C    
     13 N           5.012    -6.077     4.508  N    
     14 N           3.773    -6.222     5.026  N    
     15 C           5.700    -3.829     5.380  C    
     16 C           6.810    -3.191     5.983  C    
     17 C           6.660    -1.965     6.661  C    
     18 C           5.400    -1.349     6.740  C    
     19 C           4.291    -1.964     6.128  C    
     20 C           4.438    -3.190     5.450  C    
     21 Cl          5.212     0.126     7.556  Cl   
     22 F           4.011   -13.021    -1.399  F    
     23 H           3.593    -8.677    -0.508  H    
     24 H           2.994   -10.658    -1.738  H    
     25 H           5.782   -12.901     0.486  H    
     26 H           6.390   -10.927     1.725  H    
     27 H           6.533    -8.272     1.377  H    
     28 H           4.974    -7.502     1.067  H    
     29 H           3.092    -6.253     4.268  H    
     30 H           3.560    -5.442     5.649  H    
     31 H           3.729    -7.093     5.559  H    
     32 H           7.740    -3.619     5.951  H    
     33 H           7.477    -1.529     7.092  H    
     34 H           3.370    -1.516     6.167  H    
     35 H           3.617    -3.590     4.985  H    
@<TRIPOS>BOND
     1    1    6 ar
     2    1    2 ar
     3    2    3 ar
     4    3    4 ar
     5    3   22 1
     6    4    5 ar
     7    5    6 ar
     8    6    7 1
     9    7    8 1
    10    8    9 1
    11    9   13 1
    12    9   10 2
    13   10   11 1
    14   11   12 2
    15   12   13 1
    16   12   15 1
    17   13   14 1
    18   15   20 ar
    19   15   16 ar
    20   16   17 ar
    21   17   18 ar
    22   18   19 ar
    23   18   21 1
    24   19   20 ar
    25    1   23 1
    26    2   24 1
    27    4   25 1
    28    5   26 1
    29    7   27 1
    30    7   28 1
    31   14   29 1
    32   14   30 1
    33   14   31 1
    34   16   32 1
    35   17   33 1
    36   19   34 1
    37   20   35 1
@<TRIPOS>MOLECULE
ZINC00541019
 45 47 0 0 0
SMALL
NO_CHARGES


@<TRIPOS>ATOM
      1 C           3.801   -13.076    -3.439  C    
      2 C           4.346   -11.647    -3.206  C    
      3 C           3.958   -11.071    -1.817  C    
      4 C           4.407    -9.725    -1.459  C    
      5 C           5.154    -8.911    -2.242  C    
      6 C           5.503    -7.672    -1.784  C    
      7 O           6.182    -6.920    -2.469  O    
      8 N           5.127    -7.260    -0.576  N    
      9 C           4.378    -8.055     0.240  C    
     10 N           4.040    -9.283    -0.237  N    
     11 N           3.981    -7.738     1.493  N    
     12 C           4.210    -6.603     2.193  C    
     13 N           4.843    -5.508     1.699  N    
     14 C           5.087    -4.384     2.425  C    
     15 C           4.664    -4.343     3.786  C    
     16 C           4.864    -3.263     4.674  C    
     17 C           4.411    -3.296     6.016  C    
     18 C           3.722    -4.450     6.488  C    
     19 C           3.525    -5.535     5.604  C    
     20 C           3.989    -5.489     4.279  C    
     21 N           3.786    -6.563     3.477  N    
     22 C           3.210    -4.558     7.881  C    
     23 C           4.701    -2.098     6.849  C    
     24 C           5.774    -3.303     1.670  C    
     25 H           4.201   -13.762    -2.690  H    
     26 H           4.103   -13.425    -4.428  H    
     27 H           2.710   -13.083    -3.386  H    
     28 H           5.437   -11.678    -3.294  H    
     29 H           3.953   -10.999    -3.994  H    
     30 H           2.865   -11.083    -1.747  H    
     31 H           4.343   -11.755    -1.052  H    
     32 H           5.459    -9.197    -3.141  H    
     33 H           5.401    -6.381    -0.276  H    
     34 H           3.486    -8.427     1.961  H    
     35 H           5.352    -2.427     4.358  H    
     36 H           3.045    -6.377     5.927  H    
     37 H           4.038    -4.486     8.587  H    
     38 H           2.698    -5.504     8.070  H    
     39 H           2.497    -3.755     8.079  H    
     40 H           5.780    -1.941     6.900  H    
     41 H           4.332    -2.177     7.870  H    
     42 H           4.241    -1.218     6.399  H    
     43 H           6.708    -3.686     1.248  H    
     44 H           6.013    -2.428     2.268  H    
     45 H           5.129    -2.979     0.845  H    
@<TRIPOS>BOND
     1    1    2 1
     2    2    3 1
     3    3    4 1
     4    4   10 1
     5    4    5 2
     6    5    6 1
     7    6    7 2
     8    6    8 1
     9    8    9 1
    10    9   10 2
    11    9   11 1
    12   11   12 1
    13   12   21 ar
    14   12   13 ar
    15   13   14 ar
    16   14   15 ar
    17   14   24 1
    18   15   20 ar
    19   15   16 ar
    20   16   17 ar
    21   17   18 ar
    22   17   23 1
    23   18   19 ar
    24   18   22 1
    25   19   20 ar
    26   20   21 ar
    27    1   25 1
    28    1   26 1
    29    1   27 1
    30    2   28 1
    31    2   29 1
    32    3   30 1
    33    3   31 1
    34    5   32 1
    35    8   33 1
    36   11   34 1
    37   16   35 1
    38   19   36 1
    39   22   37 1
    40   22   38 1
    41   22   39 1
    42   23   40 1
    43   23   41 1
    44   23   42 1
    45   24   43 1
    46   24   44 1
    47   24   45 1
@<TRIPOS>MOLECULE
ZINC00622309
 46 49 0 0 0
SMALL
NO_CHARGES


@<TRIPOS>ATOM
      1 C          -0.789    -1.504    -0.395  C    
      2 C          -0.760    -0.555    -1.546  C    
      3 C          -1.313    -0.885    -2.814  C    
      4 C          -1.252     0.072    -3.851  C    
      5 C          -0.680     1.335    -3.644  C    
      6 C          -0.114     1.696    -2.394  C    
      7 C          -0.171     0.721    -1.360  C    
      8 O           0.365     1.045    -0.144  O    
      9 C           0.905     2.262     0.128  C    
     10 O           1.402     2.442     1.373  O    
     11 C           0.925     3.258    -0.856  C    
     12 C           0.489     2.960    -2.115  C    
     13 C           0.607     3.959    -3.200  C    
     14 C           1.438     5.238    -2.902  C    
     15 C           1.152     5.723    -1.470  C    
     16 C           1.456     4.577    -0.471  C    
     17 O          -1.873    -2.138    -2.964  O    
     18 C          -2.810    -2.476    -4.008  C    
     19 C          -2.129    -2.815    -5.292  C    
     20 C          -2.637    -2.342    -6.527  C    
     21 C          -1.983    -2.643    -7.738  C    
     22 C          -0.813    -3.424    -7.730  C    
     23 C          -0.300    -3.907    -6.514  C    
     24 C          -0.955    -3.608    -5.304  C    
     25 C          -3.593    -3.636    -3.538  C    
     26 O          -2.985    -4.782    -3.148  O    
     27 O          -4.940    -3.564    -3.437  O    
     28 H           0.232    -1.700    -0.054  H    
     29 H          -1.246    -2.463    -0.636  H    
     30 H          -1.360    -1.063     0.429  H    
     31 H          -1.636    -0.136    -4.774  H    
     32 H          -0.693     1.990    -4.427  H    
     33 H           1.074     3.495    -4.076  H    
     34 H          -0.405     4.272    -3.477  H    
     35 H           2.508     5.017    -3.008  H    
     36 H           1.182     6.028    -3.618  H    
     37 H           1.770     6.599    -1.244  H    
     38 H           0.099     6.017    -1.384  H    
     39 H           1.036     4.881     0.495  H    
     40 H           2.542     4.487    -0.351  H    
     41 H          -3.510    -1.644    -4.147  H    
     42 H          -3.490    -1.779    -6.555  H    
     43 H          -2.358    -2.298    -8.625  H    
     44 H          -0.335    -3.638    -8.609  H    
     45 H           0.553    -4.473    -6.509  H    
     46 H          -0.560    -3.963    -4.430  H    
@<TRIPOS>BOND
     1    1    2 1
     2    2    7 ar
     3    2    3 ar
     4    3    4 ar
     5    3   17 1
     6    4    5 ar
     7    5    6 ar
     8    6   12 1
     9    6    7 ar
    10    7    8 1
    11    8    9 1
    12    9   10 2
    13    9   11 1
    14   11   16 1
    15   11   12 2
    16   12   13 1
    17   13   14 1
    18   14   15 1
    19   15   16 1
    20   17   18 1
    21   18   19 1
    22   18   25 1
    23   19   24 ar
    24   19   20 ar
    25   20   21 ar
    26   21   22 ar
    27   22   23 ar
    28   23   24 ar
    29   25   26 2
    30   25   27 1
    31    1   28 1
    32    1   29 1
    33    1   30 1
    34    4   31 1
    35    5   32 1
    36   13   33 1
    37   13   34 1
    38   14   35 1
    39   14   36 1
    40   15   37 1
    41   15   38 1
    42   16   39 1
    43   16   40 1
    44   18   41 1
    45   20   42 1
    46   21   43 1
    47   22   44 1
    48   23   45 1
    49   24   46 1
@<TRIPOS>MOLECULE
ZINC00630698
 42 46 0 0 0
SMALL
NO_CHARGES


@<TRIPOS>ATOM
      1 C           2.592     1.907    -0.463  C    
      2 C           3.995     2.005    -0.489  C    
      3 C           4.794     0.861    -0.291  C    
      4 C           4.170    -0.380    -0.042  C    
      5 C           2.766    -0.476    -0.008  C    
      6 C           1.956     0.667    -0.221  C    
      7 N           0.583     0.571    -0.207  N    
      8 C          -0.231     0.957    -1.198  C    
      9 O           0.096     1.486    -2.253  O    
     10 C          -1.561     1.042    -0.666  C    
     11 C          -3.082     0.984    -1.072  C    
     12 C          -3.538    -0.471    -0.837  C    
     13 C          -2.970    -0.444     0.616  C    
     14 C          -1.463    -0.206     0.260  C    
     15 C          -0.156     0.063     0.787  C    
     16 O           0.254    -0.416     1.837  O    
     17 C          -3.694     0.724     1.092  C    
     18 C          -3.833     1.548     0.048  C    
     19 S           6.530     1.000    -0.343  S    
     20 O           7.224    -0.430    -0.236  O    
     21 O           6.904     1.681    -1.733  O    
     22 N           7.065     1.988     0.911  N    
     23 C           8.352     2.340     1.098  C    
     24 N           8.752     3.122     2.124  N    
     25 C          10.083     3.387     2.174  C    
     26 C          10.843     2.809     1.158  C    
     27 S           9.747     1.939     0.168  S    
     28 H           2.034     2.751    -0.604  H    
     29 H           4.428     2.916    -0.658  H    
     30 H           4.727    -1.222     0.110  H    
     31 H           2.335    -1.387     0.155  H    
     32 H          -1.470     1.994    -0.111  H    
     33 H          -3.320     1.412    -2.046  H    
     34 H          -4.623    -0.635    -0.897  H    
     35 H          -3.061    -1.181    -1.519  H    
     36 H          -3.160    -1.360     1.179  H    
     37 H          -1.222    -1.139    -0.282  H    
     38 H          -4.226     0.778     1.929  H    
     39 H          -4.446     2.330     0.007  H    
     40 H           6.411     2.310     1.552  H    
     41 H          10.497     3.959     2.910  H    
     42 H          11.849     2.890     1.025  H    
@<TRIPOS>BOND
     1    1    6 ar
     2    1    2 ar
     3    2    3 ar
     4    3    4 ar
     5    3   19 1
     6    4    5 ar
     7    5    6 ar
     8    6    7 1
     9    7   15 1
    10    7    8 1
    11    8    9 2
    12    8   10 1
    13   10   14 1
    14   10   11 1
    15   11   18 1
    16   11   12 1
    17   12   13 1
    18   13   14 1
    19   13   17 1
    20   14   15 1
    21   15   16 2
    22   17   18 2
    23   19   20 2
    24   19   21 2
    25   19   22 1
    26   22   23 1
    27   23   27 1
    28   23   24 2
    29   24   25 1
    30   25   26 2
    31   26   27 1
    32    1   28 1
    33    2   29 1
    34    4   30 1
    35    5   31 1
    36   10   32 1
    37   11   33 1
    38   12   34 1
    39   12   35 1
    40   13   36 1
    41   14   37 1
    42   17   38 1
    43   18   39 1
    44   22   40 1
    45   25   41 1
    46   26   42 1
@<TRIPOS>MOLECULE
ZINC00636312
 48 52 0 0 0
SMALL
NO_CHARGES


@<TRIPOS>ATOM
      1 C          -0.828     1.871    -1.691  C    
      2 C          -1.135     1.718    -0.323  C    
      3 C          -2.395     1.217     0.039  C    
      4 C          -3.329     0.888    -0.927  C    
      5 C          -3.032     1.040    -2.292  C    
      6 C          -1.764     1.536    -2.703  C    
      7 C          -1.441     1.707    -4.160  C    
      8 C          -0.633     0.505    -4.586  C    
      9 C          -1.319    -0.621    -5.127  C    
     10 C          -0.614    -1.776    -5.504  C    
     11 C           0.760    -1.839    -5.358  C    
     12 C           1.477    -0.750    -4.849  C    
     13 C           0.789     0.418    -4.454  C    
     14 O           1.580     1.413    -3.979  O    
     15 O           1.252    -3.031    -5.744  O    
     16 C           0.083    -3.651    -6.313  C    
     17 O          -1.120    -2.920    -6.001  O    
     18 C          -1.807     4.203    -4.118  C    
     19 C          -1.199     5.594    -4.430  C    
     20 C          -0.817     5.718    -5.925  C    
     21 C           0.096     4.542    -6.355  C    
     22 C          -0.549     3.180    -6.002  C    
     23 O          -4.469     0.420    -0.385  O    
     24 C          -4.237     0.647     1.017  C    
     25 O          -2.857     0.979     1.281  O    
     26 N          -0.902     3.069    -4.537  N    
     27 H           0.083     2.255    -1.937  H    
     28 H          -0.451     1.973     0.393  H    
     29 H          -3.747     0.785    -2.976  H    
     30 H          -2.395     1.645    -4.697  H    
     31 H          -2.337    -0.611    -5.239  H    
     32 H           2.490    -0.821    -4.764  H    
     33 H           0.989     2.141    -3.735  H    
     34 H           0.206    -3.694    -7.398  H    
     35 H           0.003    -4.670    -5.936  H    
     36 H          -1.978     4.179    -3.040  H    
     37 H          -2.784     4.117    -4.613  H    
     38 H          -1.919     6.377    -4.171  H    
     39 H          -0.307     5.738    -3.815  H    
     40 H          -1.726     5.723    -6.538  H    
     41 H          -0.295     6.666    -6.094  H    
     42 H           0.277     4.597    -7.432  H    
     43 H           1.061     4.623    -5.846  H    
     44 H          -1.445     3.033    -6.621  H    
     45 H           0.174     2.414    -6.290  H    
     46 H          -4.871     1.474     1.352  H    
     47 H          -4.513    -0.248     1.581  H    
     48 H          -0.031     3.208    -4.021  H    
@<TRIPOS>BOND
     1    1    6 ar
     2    1    2 ar
     3    2    3 ar
     4    3   25 1
     5    3    4 ar
     6    4    5 ar
     7    4   23 1
     8    5    6 ar
     9    6    7 1
    10    7    8 1
    11    7   26 1
    12    8   13 ar
    13    8    9 ar
    14    9   10 ar
    15   10   17 1
    16   10   11 ar
    17   11   12 ar
    18   11   15 1
    19   12   13 ar
    20   13   14 1
    21   15   16 1
    22   16   17 1
    23   18   19 1
    24   18   26 1
    25   19   20 1
    26   20   21 1
    27   21   22 1
    28   22   26 1
    29   23   24 1
    30   24   25 1
    31    1   27 1
    32    2   28 1
    33    5   29 1
    34    7   30 1
    35    9   31 1
    36   12   32 1
    37   14   33 1
    38   16   34 1
    39   16   35 1
    40   18   36 1
    41   18   37 1
    42   19   38 1
    43   19   39 1
    44   20   40 1
    45   20   41 1
    46   21   42 1
    47   21   43 1
    48   22   44 1
    49   22   45 1
    50   24   46 1
    51   24   47 1
    52   26   48 1
@<TRIPOS>MOLECULE
ZINC00637379
 51 54 0 0 0
SMALL
NO_CHARGES


@<TRIPOS>ATOM
      1 C           7.236    -4.611    -0.532  C    
      2 O           5.935    -5.094    -0.141  O    
      3 C           4.904    -4.203    -0.295  C    
      4 C           4.788    -3.028     0.479  C    
      5 C           3.668    -2.190     0.340  C    
      6 C           2.628    -2.517    -0.565  C    
      7 C           2.736    -3.714    -1.312  C    
      8 C           3.863    -4.544    -1.179  C    
      9 C           1.462    -1.709    -0.657  C    
     10 C           0.783    -1.256     0.463  C    
     11 C          -0.324    -0.558     0.014  C    
     12 N          -0.315    -0.612    -1.345  N    
     13 N           0.762    -1.270    -1.740  N    
     14 C           1.194    -1.401    -3.110  C    
     15 C           0.273    -2.297    -3.981  C    
     16 C          -1.248    -2.021    -3.843  C    
     17 C          -1.584    -0.523    -3.625  C    
     18 C          -1.396    -0.063    -2.150  C    
     19 C          -1.256     0.041     0.903  C    
     20 C          -1.906    -0.757     1.873  C    
     21 C          -2.787    -0.180     2.806  C    
     22 C          -3.059     1.206     2.774  C    
     23 C          -2.396     2.005     1.824  C    
     24 C          -1.501     1.437     0.893  C    
     25 F          -0.861     2.240     0.083  F    
     26 O          -3.849     1.847     3.697  O    
     27 C          -5.213     1.383     3.806  C    
     28 H           7.231    -4.154    -1.530  H    
     29 H           7.908    -5.468    -0.560  H    
     30 H           7.624    -3.892     0.202  H    
     31 H           5.513    -2.785     1.154  H    
     32 H           3.617    -1.342     0.910  H    
     33 H           1.982    -4.006    -1.936  H    
     34 H           3.915    -5.413    -1.716  H    
     35 H           1.042    -1.410     1.438  H    
     36 H           1.239    -0.398    -3.544  H    
     37 H           2.212    -1.791    -3.184  H    
     38 H           0.565    -2.153    -5.026  H    
     39 H           0.454    -3.347    -3.739  H    
     40 H          -1.743    -2.364    -4.757  H    
     41 H          -1.658    -2.609    -3.016  H    
     42 H          -0.976     0.093    -4.293  H    
     43 H          -2.632    -0.356    -3.904  H    
     44 H          -2.335    -0.300    -1.642  H    
     45 H          -1.302     1.025    -2.157  H    
     46 H          -1.732    -1.762     1.920  H    
     47 H          -3.221    -0.775     3.511  H    
     48 H          -2.547     3.018     1.826  H    
     49 H          -5.692     1.277     2.825  H    
     50 H          -5.767     2.127     4.371  H    
     51 H          -5.267     0.431     4.344  H    
@<TRIPOS>BOND
     1    1    2 1
     2    2    3 1
     3    3    8 ar
     4    3    4 ar
     5    4    5 ar
     6    5    6 ar
     7    6    7 ar
     8    6    9 1
     9    7    8 ar
    10    9   13 2
    11    9   10 1
    12   10   11 2
    13   11   12 1
    14   11   19 1
    15   12   18 1
    16   12   13 1
    17   13   14 1
    18   14   15 1
    19   15   16 1
    20   16   17 1
    21   17   18 1
    22   19   24 ar
    23   19   20 ar
    24   20   21 ar
    25   21   22 ar
    26   22   23 ar
    27   22   26 1
    28   23   24 ar
    29   24   25 1
    30   26   27 1
    31    1   28 1
    32    1   29 1
    33    1   30 1
    34    4   31 1
    35    5   32 1
    36    7   33 1
    37    8   34 1
    38   10   35 1
    39   14   36 1
    40   14   37 1
    41   15   38 1
    42   15   39 1
    43   16   40 1
    44   16   41 1
    45   17   42 1
    46   17   43 1
    47   18   44 1
    48   18   45 1
    49   20   46 1
    50   21   47 1
    51   23   48 1
    52   27   49 1
    53   27   50 1
    54   27   51 1
@<TRIPOS>MOLECULE
ZINC00639056
 38 40 0 0 0
SMALL
NO_CHARGES


@<TRIPOS>ATOM
      1 C           1.393    -5.480    -0.133  C    
      2 C           2.789    -5.296    -0.022  C    
      3 C           3.322    -3.998     0.191  C    
      4 C           2.451    -2.886     0.323  C    
      5 C           1.048    -3.077     0.226  C    
      6 C           0.523    -4.373    -0.017  C    
      7 O           0.152    -2.032     0.317  O    
      8 C           0.302    -1.135     1.355  C    
      9 C           0.447    -1.550     2.707  C    
     10 C           0.555    -0.592     3.730  C    
     11 C           0.631     0.791     3.401  C    
     12 C           0.472     1.206     2.041  C    
     13 C           0.236     0.243     1.040  C    
     14 C           0.372     2.477     1.697  C    
     15 N           0.266     3.584     1.412  N    
     16 C           0.693     1.654     4.391  C    
     17 N           0.740     2.401     5.261  N    
     18 O           4.691    -3.880     0.304  O    
     19 C           5.313    -2.871    -0.398  C    
     20 C           5.096    -2.657    -1.788  C    
     21 C           5.794    -1.631    -2.459  C    
     22 C           6.649    -0.754    -1.720  C    
     23 C           6.918    -1.027    -0.354  C    
     24 C           6.244    -2.074     0.306  C    
     25 C           7.786    -0.319     0.341  C    
     26 N           8.547     0.307     0.934  N    
     27 C           7.283     0.189    -2.384  C    
     28 N           7.884     0.921    -3.035  N    
     29 H           1.017    -6.403    -0.296  H    
     30 H           3.415    -6.090    -0.100  H    
     31 H           2.828    -1.960     0.486  H    
     32 H          -0.478    -4.501    -0.102  H    
     33 H           0.461    -2.535     2.938  H    
     34 H           0.630    -0.891     4.690  H    
     35 H           0.072     0.523     0.076  H    
     36 H           4.444    -3.241    -2.293  H    
     37 H           5.662    -1.512    -3.456  H    
     38 H           6.417    -2.257     1.292  H    
@<TRIPOS>BOND
     1    1    6 ar
     2    1    2 ar
     3    2    3 ar
     4    3    4 ar
     5    3   18 1
     6    4    5 ar
     7    5    6 ar
     8    5    7 1
     9    7    8 1
    10    8   13 ar
    11    8    9 ar
    12    9   10 ar
    13   10   11 ar
    14   11   12 ar
    15   11   16 1
    16   12   13 ar
    17   12   14 1
    18   14   15 3
    19   16   17 3
    20   18   19 1
    21   19   24 ar
    22   19   20 ar
    23   20   21 ar
    24   21   22 ar
    25   22   23 ar
    26   22   27 1
    27   23   24 ar
    28   23   25 1
    29   25   26 3
    30   27   28 3
    31    1   29 1
    32    2   30 1
    33    4   31 1
    34    6   32 1
    35    9   33 1
    36   10   34 1
    37   13   35 1
    38   20   36 1
    39   21   37 1
    40   24   38 1
@<TRIPOS>MOLECULE
ZINC00641006
 28 29 0 0 0
SMALL
NO_CHARGES


@<TRIPOS>ATOM
      1 C           4.401    -1.085     5.504  C    
      2 C           4.490    -2.387     4.979  C    
      3 C           5.654    -2.817     4.301  C    
      4 C           6.757    -1.926     4.197  C    
      5 C           6.663    -0.622     4.730  C    
      6 C           5.484    -0.195     5.375  C    
      7 Cl          5.384     1.369     6.016  Cl   
      8 Cl          8.250    -2.404     3.545  Cl   
      9 N           5.657    -4.107     3.852  N    
     10 C           5.919    -4.530     2.622  C    
     11 O           6.133    -3.739     1.713  O    
     12 N           5.831    -5.839     2.432  N    
     13 C           5.993    -6.610     1.307  C    
     14 C           6.667    -6.176     0.135  C    
     15 C           6.787    -7.018    -0.987  C    
     16 C           6.244    -8.317    -0.956  C    
     17 C           5.599    -8.774     0.208  C    
     18 C           5.476    -7.934     1.333  C    
     19 Cl          4.680    -8.571     2.693  Cl   
     20 Cl          6.378    -9.327    -2.310  Cl   
     21 H           3.545    -0.789     5.983  H    
     22 H           3.691    -3.021     5.088  H    
     23 H           7.461     0.015     4.666  H    
     24 H           5.319    -4.774     4.472  H    
     25 H           5.566    -6.335     3.224  H    
     26 H           7.099    -5.253     0.085  H    
     27 H           7.272    -6.686    -1.825  H    
     28 H           5.213    -9.725     0.233  H    
@<TRIPOS>BOND
     1    1    6 ar
     2    1    2 ar
     3    2    3 ar
     4    3    4 ar
     5    3    9 1
     6    4    5 ar
     7    4    8 1
     8    5    6 ar
     9    6    7 1
    10    9   10 1
    11   10   11 2
    12   10   12 1
    13   12   13 1
    14   13   18 ar
    15   13   14 ar
    16   14   15 ar
    17   15   16 ar
    18   16   17 ar
    19   16   20 1
    20   17   18 ar
    21   18   19 1
    22    1   21 1
    23    2   22 1
    24    5   23 1
    25    9   24 1
    26   12   25 1
    27   14   26 1
    28   15   27 1
    29   17   28 1
@<TRIPOS>MOLECULE
ZINC00686924
 49 51 0 0 0
SMALL
NO_CHARGES


@<TRIPOS>ATOM
      1 C           3.815     1.880    -4.424  C    
      2 C           3.089     0.595    -4.454  C    
      3 C           3.273    -0.359    -5.414  C    
      4 C           2.204    -1.196    -5.720  C    
      5 O           2.344    -2.095    -6.550  O    
      6 N           0.986    -0.982    -5.160  N    
      7 C           0.871    -0.083    -4.156  C    
      8 O          -0.219     0.251    -3.708  O    
      9 C           2.012     0.446    -3.588  C    
     10 C           2.117     0.539    -2.241  C    
     11 N           3.277     0.694    -1.594  N    
     12 C           3.495     0.914    -0.269  C    
     13 C           4.846     0.990     0.145  C    
     14 C           5.184     1.228     1.491  C    
     15 C           4.172     1.398     2.455  C    
     16 C           2.820     1.322     2.058  C    
     17 C           2.487     1.085     0.712  C    
     18 S           4.557     1.697     4.128  S    
     19 O           3.781     3.034     4.515  O    
     20 O           6.093     2.040     4.357  O    
     21 N           4.083     0.417     5.131  N    
     22 C           4.855    -0.798     5.066  C    
     23 C           4.023    -2.007     5.557  C    
     24 O           3.416    -1.720     6.828  O    
     25 C           2.554    -0.565     6.796  C    
     26 C           3.322     0.695     6.324  C    
     27 C          -0.163    -1.706    -5.671  C    
     28 C           4.316    -0.377    -6.170  C    
     29 N           5.255    -0.402    -6.836  N    
     30 H           3.093     2.703    -4.412  H    
     31 H           4.459     2.042    -5.292  H    
     32 H           4.441     1.961    -3.535  H    
     33 H           1.303     0.395    -1.692  H    
     34 H           4.078     0.616    -2.137  H    
     35 H           5.602     0.874    -0.536  H    
     36 H           6.172     1.266     1.758  H    
     37 H           2.072     1.440     2.746  H    
     38 H           1.497     1.054     0.465  H    
     39 H           5.190    -1.005     4.046  H    
     40 H           5.741    -0.690     5.699  H    
     41 H           3.255    -2.257     4.817  H    
     42 H           4.676    -2.876     5.668  H    
     43 H           1.704    -0.753     6.133  H    
     44 H           2.163    -0.394     7.803  H    
     45 H           4.004     1.024     7.112  H    
     46 H           2.588     1.487     6.157  H    
     47 H          -0.286    -1.482    -6.736  H    
     48 H          -1.108    -1.462    -5.176  H    
     49 H          -0.009    -2.785    -5.556  H    
@<TRIPOS>BOND
     1    1    2 1
     2    2    9 1
     3    2    3 2
     4    3    4 1
     5    3   28 1
     6    4    5 2
     7    4    6 1
     8    6    7 1
     9    6   27 1
    10    7    8 2
    11    7    9 1
    12    9   10 2
    13   10   11 1
    14   11   12 1
    15   12   17 ar
    16   12   13 ar
    17   13   14 ar
    18   14   15 ar
    19   15   16 ar
    20   15   18 1
    21   16   17 ar
    22   18   19 2
    23   18   20 2
    24   18   21 1
    25   21   26 1
    26   21   22 1
    27   22   23 1
    28   23   24 1
    29   24   25 1
    30   25   26 1
    31   28   29 3
    32    1   30 1
    33    1   31 1
    34    1   32 1
    35   10   33 1
    36   11   34 1
    37   13   35 1
    38   14   36 1
    39   16   37 1
    40   17   38 1
    41   22   39 1
    42   22   40 1
    43   23   41 1
    44   23   42 1
    45   25   43 1
    46   25   44 1
    47   26   45 1
    48   26   46 1
    49   27   47 1
    50   27   48 1
    51   27   49 1
@<TRIPOS>MOLECULE
ZINC00686962
 36 38 0 0 0
SMALL
NO_CHARGES


@<TRIPOS>ATOM
      1 C           2.861     6.764     8.747  C    
      2 C           2.218     8.092     8.824  C    
      3 C           1.599     8.873     7.840  C    
      4 C           1.268    10.063     8.496  C    
      5 N           1.676     9.972     9.785  N    
      6 N           2.227     8.807     9.961  N    
      7 C           1.572    10.891    10.805  C    
      8 C           1.785    12.275    10.592  C    
      9 C           1.675    13.196    11.649  C    
     10 C           1.373    12.747    12.946  C    
     11 C           1.182    11.376    13.184  C    
     12 C           1.281    10.457    12.123  C    
     13 Cl          0.334    11.322     7.833  Cl   
     14 C           1.359     8.555     6.509  C    
     15 O           1.420     9.461     5.681  O    
     16 N           1.060     7.306     6.171  N    
     17 C           0.842     6.715     4.952  C    
     18 C           1.076     7.304     3.683  C    
     19 C           0.821     6.592     2.495  C    
     20 C           0.335     5.273     2.553  C    
     21 C           0.111     4.667     3.803  C    
     22 C           0.367     5.383     4.987  C    
     23 I          -0.032     4.241     0.816  I    
     24 H           3.885     6.839     9.125  H    
     25 H           2.906     6.390     7.726  H    
     26 H           2.305     6.054     9.362  H    
     27 H           2.045    12.623     9.668  H    
     28 H           1.830    14.189    11.479  H    
     29 H           1.300    13.414    13.714  H    
     30 H           0.975    11.045    14.128  H    
     31 H           1.127     9.464    12.317  H    
     32 H           0.950     6.707     6.926  H    
     33 H           1.451     8.248     3.595  H    
     34 H           0.993     7.030     1.589  H    
     35 H          -0.236     3.707     3.852  H    
     36 H           0.205     4.919     5.884  H    
@<TRIPOS>BOND
     1    1    2 1
     2    2    6 2
     3    2    3 1
     4    3    4 2
     5    3   14 1
     6    4    5 1
     7    4   13 1
     8    5    6 1
     9    5    7 1
    10    7   12 ar
    11    7    8 ar
    12    8    9 ar
    13    9   10 ar
    14   10   11 ar
    15   11   12 ar
    16   14   15 2
    17   14   16 1
    18   16   17 1
    19   17   22 ar
    20   17   18 ar
    21   18   19 ar
    22   19   20 ar
    23   20   21 ar
    24   20   23 1
    25   21   22 ar
    26    1   24 1
    27    1   25 1
    28    1   26 1
    29    8   27 1
    30    9   28 1
    31   10   29 1
    32   11   30 1
    33   12   31 1
    34   16   32 1
    35   18   33 1
    36   19   34 1
    37   21   35 1
    38   22   36 1
@<TRIPOS>MOLECULE
ZINC00688579
 51 54 0 0 0
SMALL
NO_CHARGES


@<TRIPOS>ATOM
      1 C          -5.619    11.851     2.441  C    
      2 C          -4.705    10.789     1.973  C    
      3 C          -3.373    11.072     1.592  C    
      4 C          -2.536    10.024     1.185  C    
      5 N          -3.008     8.752     1.167  N    
      6 C          -4.279     8.417     1.512  C    
      7 C          -5.157     9.451     1.918  C    
      8 N          -4.554     7.091     1.415  N    
      9 C          -5.684     6.418     1.573  C    
     10 O          -6.758     6.935     1.846  O    
     11 C          -5.660     5.064     1.435  C    
     12 C          -5.653     4.462     0.220  C    
     13 N          -5.665     3.148     0.147  N    
     14 C          -5.781     2.314     1.154  C    
     15 C          -5.844     2.776     2.430  C    
     16 C          -5.691     4.235     2.658  C    
     17 C          -4.474     4.503     3.493  C    
     18 C          -3.179     4.156     3.034  C    
     19 C          -2.038     4.421     3.815  C    
     20 C          -2.169     5.040     5.073  C    
     21 C          -3.449     5.399     5.539  C    
     22 C          -4.589     5.132     4.755  C    
     23 Cl         -0.808     5.342     6.025  Cl   
     24 C          -6.040     1.899     3.482  C    
     25 O          -6.439     2.315     4.560  O    
     26 C          -5.959     0.448     3.333  C    
     27 C          -5.340     0.011     1.982  C    
     28 C          -5.886     0.892     0.830  C    
     29 C          -5.631     5.192    -1.043  C    
     30 H          -6.498    11.895     1.796  H    
     31 H          -5.140    12.832     2.437  H    
     32 H          -5.941    11.631     3.461  H    
     33 H          -3.009    12.028     1.617  H    
     34 H          -1.572    10.211     0.901  H    
     35 H          -6.116     9.247     2.194  H    
     36 H          -3.787     6.542     1.174  H    
     37 H          -5.621     2.768    -0.708  H    
     38 H          -6.594     4.540     3.197  H    
     39 H          -3.058     3.703     2.125  H    
     40 H          -1.116     4.159     3.463  H    
     41 H          -3.559     5.851     6.448  H    
     42 H          -5.505     5.403     5.119  H    
     43 H          -5.356     0.028     4.143  H    
     44 H          -6.969     0.035     3.415  H    
     45 H          -4.254     0.123     2.031  H    
     46 H          -5.564    -1.040     1.789  H    
     47 H          -6.938     0.654     0.654  H    
     48 H          -5.326     0.654    -0.079  H    
     49 H          -6.485     5.872    -1.096  H    
     50 H          -5.675     4.533    -1.914  H    
     51 H          -4.710     5.775    -1.110  H    
@<TRIPOS>BOND
     1    1    2 1
     2    2    7 ar
     3    2    3 ar
     4    3    4 ar
     5    4    5 ar
     6    5    6 ar
     7    6    7 ar
     8    6    8 1
     9    8    9 1
    10    9   10 2
    11    9   11 1
    12   11   16 1
    13   11   12 2
    14   12   13 1
    15   12   29 1
    16   13   14 1
    17   14   28 1
    18   14   15 2
    19   15   16 1
    20   15   24 1
    21   16   17 1
    22   17   22 ar
    23   17   18 ar
    24   18   19 ar
    25   19   20 ar
    26   20   21 ar
    27   20   23 1
    28   21   22 ar
    29   24   25 2
    30   24   26 1
    31   26   27 1
    32   27   28 1
    33    1   30 1
    34    1   31 1
    35    1   32 1
    36    3   33 1
    37    4   34 1
    38    7   35 1
    39    8   36 1
    40   13   37 1
    41   16   38 1
    42   18   39 1
    43   19   40 1
    44   21   41 1
    45   22   42 1
    46   26   43 1
    47   26   44 1
    48   27   45 1
    49   27   46 1
    50   28   47 1
    51   28   48 1
    52   29   49 1
    53   29   50 1
    54   29   51 1
@<TRIPOS>MOLECULE
ZINC00712186
 36 38 0 0 0
SMALL
NO_CHARGES


@<TRIPOS>ATOM
      1 C          -4.023     3.956     2.044  C    
      2 C          -4.780     5.078     1.507  C    
      3 C          -6.082     5.066     1.205  C    
      4 C          -6.408     6.314     0.894  C    
      5 O          -7.551     6.700     0.680  O    
      6 N          -5.315     7.055     0.961  N    
      7 N          -4.324     6.284     1.280  N    
      8 C          -2.951     6.610     1.226  C    
      9 C          -5.310     8.425     0.816  C    
     10 C          -5.858     9.040    -0.337  C    
     11 C          -5.872    10.441    -0.464  C    
     12 C          -5.325    11.246     0.555  C    
     13 C          -4.774    10.649     1.704  C    
     14 C          -4.773     9.248     1.838  C    
     15 N          -6.932     4.084     1.268  N    
     16 C          -7.055     3.012     0.568  C    
     17 C          -6.277     2.643    -0.515  C    
     18 C          -6.410     1.465    -1.249  C    
     19 C          -5.430     1.475    -2.231  C    
     20 C          -4.727     2.662    -2.076  C    
     21 O          -5.244     3.358    -1.037  O    
     22 I          -3.126     3.273    -3.211  I    
     23 H          -3.240     3.669     1.343  H    
     24 H          -4.651     3.083     2.227  H    
     25 H          -3.563     4.245     2.990  H    
     26 H          -2.511     6.528     2.222  H    
     27 H          -2.774     7.624     0.859  H    
     28 H          -2.424     5.932     0.552  H    
     29 H          -6.244     8.467    -1.094  H    
     30 H          -6.272    10.875    -1.299  H    
     31 H          -5.331    12.264     0.459  H    
     32 H          -4.381    11.234     2.448  H    
     33 H          -4.385     8.829     2.688  H    
     34 H          -7.792     2.405     0.836  H    
     35 H          -7.095     0.721    -1.092  H    
     36 H          -5.258     0.750    -2.928  H    
@<TRIPOS>BOND
     1    1    2 1
     2    2    7 1
     3    2    3 2
     4    3    4 1
     5    3   15 1
     6    4    5 2
     7    4    6 1
     8    6    7 1
     9    6    9 1
    10    7    8 1
    11    9   14 ar
    12    9   10 ar
    13   10   11 ar
    14   11   12 ar
    15   12   13 ar
    16   13   14 ar
    17   15   16 2
    18   16   17 1
    19   17   21 1
    20   17   18 2
    21   18   19 1
    22   19   20 2
    23   20   21 1
    24   20   22 1
    25    1   23 1
    26    1   24 1
    27    1   25 1
    28    8   26 1
    29    8   27 1
    30    8   28 1
    31   10   29 1
    32   11   30 1
    33   12   31 1
    34   13   32 1
    35   14   33 1
    36   16   34 1
    37   18   35 1
    38   19   36 1
@<TRIPOS>MOLECULE
ZINC00724877
 64 68 0 0 0
SMALL
NO_CHARGES


@<TRIPOS>ATOM
      1 C           5.799     8.311    13.274  C    
      2 C           4.685     9.199    12.872  C    
      3 C           4.368    10.368    13.598  C    
      4 C           3.300    11.190    13.195  C    
      5 C           2.538    10.851    12.063  C    
      6 C           2.830     9.683    11.317  C    
      7 C           3.909     8.868    11.737  C    
      8 N           2.080     9.342    10.210  N    
      9 C           0.762     9.253    10.174  C    
     10 O           0.005     9.451    11.115  O    
     11 C           0.261     8.879     8.882  C    
     12 C           1.558     8.631     8.073  C    
     13 C           2.572     9.042     9.019  C    
     14 O           3.755     9.107     8.708  O    
     15 C           2.654     7.094     6.420  C    
     16 C           2.607     5.677     5.796  C    
     17 C           1.849     4.743     7.952  C    
     18 C           1.901     6.156     8.583  C    
     19 C           3.018     3.219     6.337  C    
     20 C           4.375     2.982     5.624  C    
     21 C           3.977     2.467     4.345  C    
     22 O           4.795     2.151     3.489  O    
     23 N           2.667     2.352     4.232  N    
     24 C           2.076     2.769     5.337  C    
     25 O           0.865     2.770     5.525  O    
     26 C           2.009     1.881     3.123  C    
     27 C           1.962     2.703     1.969  C    
     28 C           1.282     2.276     0.816  C    
     29 C           0.645     1.026     0.798  C    
     30 C           0.704     0.192     1.931  C    
     31 C           1.391     0.600     3.101  C    
     32 C           1.482    -0.322     4.264  C    
     33 N           1.676     7.222     7.547  N    
     34 N           2.848     4.627     6.842  N    
     35 H           5.412     7.311    13.488  H    
     36 H           6.316     8.677    14.164  H    
     37 H           6.528     8.243    12.462  H    
     38 H           4.911    10.632    14.424  H    
     39 H           3.075    12.035    13.728  H    
     40 H           1.770    11.465    11.781  H    
     41 H           4.125     8.014    11.217  H    
     42 H          -0.371     7.989     8.950  H    
     43 H          -0.329     9.699     8.462  H    
     44 H           1.559     9.340     7.236  H    
     45 H           3.672     7.295     6.766  H    
     46 H           2.415     7.814     5.632  H    
     47 H           1.631     5.534     5.323  H    
     48 H           3.368     5.623     5.014  H    
     49 H           2.071     4.018     8.740  H    
     50 H           0.837     4.547     7.586  H    
     51 H           1.136     6.205     9.362  H    
     52 H           2.876     6.287     9.066  H    
     53 H           2.970     2.515     7.178  H    
     54 H           4.954     3.901     5.503  H    
     55 H           4.985     2.242     6.153  H    
     56 H           2.415     3.622     1.971  H    
     57 H           1.250     2.878    -0.012  H    
     58 H           0.145     0.718    -0.041  H    
     59 H           0.247    -0.721     1.891  H    
     60 H           2.534    -0.545     4.470  H    
     61 H           0.961    -1.268     4.087  H    
     62 H           1.037     0.145     5.146  H    
     63 H           0.763     7.012     7.136  H    
     64 H           3.748     4.864     7.268  H    
@<TRIPOS>BOND
     1    1    2 1
     2    2    7 ar
     3    2    3 ar
     4    3    4 ar
     5    4    5 ar
     6    5    6 ar
     7    6    7 ar
     8    6    8 1
     9    8   13 1
    10    8    9 1
    11    9   10 2
    12    9   11 1
    13   11   12 1
    14   12   13 1
    15   12   33 1
    16   13   14 2
    17   15   16 1
    18   15   33 1
    19   16   34 1
    20   17   18 1
    21   17   34 1
    22   18   33 1
    23   19   24 1
    24   19   20 1
    25   19   34 1
    26   20   21 1
    27   21   22 2
    28   21   23 1
    29   23   24 1
    30   23   26 1
    31   24   25 2
    32   26   31 ar
    33   26   27 ar
    34   27   28 ar
    35   28   29 ar
    36   29   30 ar
    37   30   31 ar
    38   31   32 1
    39    1   35 1
    40    1   36 1
    41    1   37 1
    42    3   38 1
    43    4   39 1
    44    5   40 1
    45    7   41 1
    46   11   42 1
    47   11   43 1
    48   12   44 1
    49   15   45 1
    50   15   46 1
    51   16   47 1
    52   16   48 1
    53   17   49 1
    54   17   50 1
    55   18   51 1
    56   18   52 1
    57   19   53 1
    58   20   54 1
    59   20   55 1
    60   27   56 1
    61   28   57 1
    62   29   58 1
    63   30   59 1
    64   32   60 1
    65   32   61 1
    66   32   62 1
    67   33   63 1
    68   34   64 1
@<TRIPOS>MOLECULE
ZINC00730211
 56 59 0 0 0
SMALL
NO_CHARGES


@<TRIPOS>ATOM
      1 C           4.660     5.509    -0.112  C    
      2 C           3.600     4.769     0.564  C    
      3 C           3.472     4.777     1.913  C    
      4 C           2.477     4.097     2.550  C    
      5 C           1.564     3.414     1.832  C    
      6 N           1.626     3.359     0.462  N    
      7 C           2.657     4.028    -0.170  C    
      8 N           2.741     3.957    -1.521  N    
      9 C           1.879     3.282    -2.299  C    
     10 C           0.832     2.658    -1.685  C    
     11 C           0.730     2.687    -0.294  C    
     12 O          -0.188     2.084     0.258  O    
     13 C          -0.112     2.043    -2.474  C    
     14 C          -0.051     2.061    -3.821  C    
     15 C           1.045     2.695    -4.437  C    
     16 N           2.044     3.279    -3.674  N    
     17 C           3.251     3.866    -4.296  C    
     18 C           4.092     2.856    -5.127  C    
     19 C           2.956     5.173    -5.083  C    
     20 C          -1.047     1.477    -4.531  C    
     21 O          -2.082     2.114    -4.729  O    
     22 N          -0.860     0.250    -5.002  N    
     23 C          -1.757    -0.516    -5.820  C    
     24 C          -2.132    -1.832    -5.082  C    
     25 C          -2.989    -2.772    -5.968  C    
     26 C          -2.306    -3.062    -7.331  C    
     27 C          -1.924    -1.752    -8.068  C    
     28 C          -1.058    -0.828    -7.175  C    
     29 N           1.062     2.697    -5.788  N    
     30 H           5.271     4.814    -0.689  H    
     31 H           5.312     6.037     0.591  H    
     32 H           4.219     6.245    -0.787  H    
     33 H           4.112     5.296     2.472  H    
     34 H           2.427     4.109     3.545  H    
     35 H           0.840     2.946     2.332  H    
     36 H          -0.878     1.575    -2.035  H    
     37 H           3.960     4.182    -3.530  H    
     38 H           4.219     1.928    -4.568  H    
     39 H           5.084     3.267    -5.334  H    
     40 H           3.633     2.622    -6.087  H    
     41 H           2.340     4.995    -5.964  H    
     42 H           3.892     5.631    -5.417  H    
     43 H           2.440     5.888    -4.440  H    
     44 H          -0.011    -0.173    -4.778  H    
     45 H          -2.676     0.040    -6.024  H    
     46 H          -1.220    -2.361    -4.784  H    
     47 H          -2.692    -1.591    -4.172  H    
     48 H          -3.150    -3.716    -5.440  H    
     49 H          -3.967    -2.314    -6.144  H    
     50 H          -1.404    -3.657    -7.163  H    
     51 H          -2.981    -3.649    -7.959  H    
     52 H          -1.370    -1.999    -8.978  H    
     53 H          -2.835    -1.222    -8.363  H    
     54 H          -0.863     0.106    -7.709  H    
     55 H          -0.095    -1.315    -6.990  H    
     56 H           1.776     3.114    -6.287  H    
@<TRIPOS>BOND
     1    1    2 1
     2    2    7 1
     3    2    3 2
     4    3    4 1
     5    4    5 2
     6    5    6 1
     7    6   11 1
     8    6    7 1
     9    7    8 2
    10    8    9 1
    11    9   16 1
    12    9   10 2
    13   10   11 1
    14   10   13 1
    15   11   12 2
    16   13   14 2
    17   14   15 1
    18   14   20 1
    19   15   16 1
    20   15   29 2
    21   16   17 1
    22   17   18 1
    23   17   19 1
    24   20   21 2
    25   20   22 1
    26   22   23 1
    27   23   28 1
    28   23   24 1
    29   24   25 1
    30   25   26 1
    31   26   27 1
    32   27   28 1
    33    1   30 1
    34    1   31 1
    35    1   32 1
    36    3   33 1
    37    4   34 1
    38    5   35 1
    39   13   36 1
    40   17   37 1
    41   18   38 1
    42   18   39 1
    43   18   40 1
    44   19   41 1
    45   19   42 1
    46   19   43 1
    47   22   44 1
    48   23   45 1
    49   24   46 1
    50   24   47 1
    51   25   48 1
    52   25   49 1
    53   26   50 1
    54   26   51 1
    55   27   52 1
    56   27   53 1
    57   28   54 1
    58   28   55 1
    59   29   56 1
@<TRIPOS>MOLECULE
ZINC00766524
 35 36 0 0 0
SMALL
NO_CHARGES


@<TRIPOS>ATOM
      1 C          -7.520     3.344     0.426  C    
      2 C          -7.421     4.511     1.293  C    
      3 C          -6.317     4.905     1.985  C    
      4 C          -6.366     6.187     2.732  C    
      5 N          -7.596     6.915     2.596  N    
      6 C          -8.631     6.435     1.929  C    
      7 O          -9.673     7.069     1.883  O    
      8 N          -8.538     5.265     1.316  N    
      9 C          -6.135     5.985     4.199  C    
     10 C          -7.023     5.197     4.970  C    
     11 C          -6.796     4.984     6.342  C    
     12 C          -5.671     5.547     6.972  C    
     13 C          -4.774     6.338     6.219  C    
     14 C          -5.014     6.553     4.846  C    
     15 Cl         -3.394     7.038     6.911  Cl   
     16 Cl         -5.450     5.246     8.629  Cl   
     17 C          -5.152     4.149     2.070  C    
     18 O          -3.941     4.764     2.081  O    
     19 O          -5.231     2.817     2.337  O    
     20 C          -4.129     1.922     2.538  C    
     21 C          -4.641     0.504     2.885  C    
     22 F          -5.359     0.529     4.058  F    
     23 F          -5.453     0.026     1.881  F    
     24 F          -3.584    -0.357     3.037  F    
     25 H          -8.197     2.612     0.874  H    
     26 H          -6.562     2.858     0.226  H    
     27 H          -7.928     3.638    -0.548  H    
     28 H          -5.595     6.838     2.311  H    
     29 H          -7.682     7.774     3.038  H    
     30 H          -9.314     4.946     0.827  H    
     31 H          -7.847     4.773     4.537  H    
     32 H          -7.458     4.412     6.875  H    
     33 H          -4.361     7.128     4.312  H    
     34 H          -3.523     1.881     1.626  H    
     35 H          -3.507     2.293     3.361  H    
@<TRIPOS>BOND
     1    1    2 1
     2    2    8 1
     3    2    3 2
     4    3    4 1
     5    3   17 1
     6    4    5 1
     7    4    9 1
     8    5    6 1
     9    6    7 2
    10    6    8 1
    11    9   14 ar
    12    9   10 ar
    13   10   11 ar
    14   11   12 ar
    15   12   13 ar
    16   12   16 1
    17   13   14 ar
    18   13   15 1
    19   17   18 2
    20   17   19 1
    21   19   20 1
    22   20   21 1
    23   21   22 1
    24   21   23 1
    25   21   24 1
    26    1   25 1
    27    1   26 1
    28    1   27 1
    29    4   28 1
    30    5   29 1
    31    8   30 1
    32   10   31 1
    33   11   32 1
    34   14   33 1
    35   20   34 1
    36   20   35 1
@<TRIPOS>MOLECULE
ZINC00792592
 48 50 0 0 0
SMALL
NO_CHARGES


@<TRIPOS>ATOM
      1 C           1.125     3.884     3.805  C    
      2 C          -0.263     3.441     3.314  C    
      3 O          -0.388     3.785     1.931  O    
      4 C          -1.463     3.592     1.115  C    
      5 O          -2.572     3.000     1.632  O    
      6 C          -1.364     3.926    -0.246  C    
      7 C          -2.437     4.201    -1.026  C    
      8 O          -2.326     4.476    -2.343  O    
      9 C          -1.126     4.764    -2.892  C    
     10 C           0.041     4.528    -2.243  C    
     11 C          -0.028     3.974    -0.877  C    
     12 C           0.569     2.608    -0.873  C    
     13 C           1.708     2.196    -0.167  C    
     14 C           2.041     0.837    -0.312  C    
     15 C           1.176     0.116    -1.144  C    
     16 S          -0.028     1.217    -1.697  S    
     17 C           1.242    -1.319    -1.466  C    
     18 Br          3.502     0.088     0.565  Br   
     19 C           1.251     4.773    -2.861  C    
     20 O           2.279     4.852    -2.201  O    
     21 C           1.367     5.112    -4.276  C    
     22 C           0.062     4.862    -5.113  C    
     23 C          -1.163     5.315    -4.244  C    
     24 C          -0.063     3.345    -5.487  C    
     25 C           0.113     5.691    -6.437  C    
     26 N          -3.646     4.258    -0.596  N    
     27 H           1.907     3.390     3.226  H    
     28 H           1.250     3.630     4.858  H    
     29 H           1.230     4.969     3.688  H    
     30 H          -0.361     2.359     3.433  H    
     31 H          -1.038     3.937     3.903  H    
     32 H           0.586     4.635    -0.255  H    
     33 H           2.257     2.834     0.412  H    
     34 H           2.197    -1.547    -1.944  H    
     35 H           0.431    -1.600    -2.140  H    
     36 H           1.150    -1.902    -0.546  H    
     37 H           1.641     6.171    -4.325  H    
     38 H           2.196     4.546    -4.721  H    
     39 H          -2.095     5.036    -4.745  H    
     40 H          -1.164     6.401    -4.138  H    
     41 H           0.783     3.028    -6.101  H    
     42 H          -0.981     3.158    -6.053  H    
     43 H          -0.084     2.717    -4.593  H    
     44 H           0.186     6.760    -6.222  H    
     45 H          -0.791     5.528    -7.033  H    
     46 H           0.977     5.405    -7.037  H    
     47 H          -4.340     4.482    -1.183  H    
     48 H          -3.834     4.174     0.315  H    
@<TRIPOS>BOND
     1    1    2 1
     2    2    3 1
     3    3    4 1
     4    4    5 2
     5    4    6 1
     6    6   11 1
     7    6    7 2
     8    7    8 1
     9    7   26 1
    10    8    9 1
    11    9   23 1
    12    9   10 2
    13   10   11 1
    14   10   19 1
    15   11   12 1
    16   12   16 1
    17   12   13 2
    18   13   14 1
    19   14   15 2
    20   14   18 1
    21   15   16 1
    22   15   17 1
    23   19   20 2
    24   19   21 1
    25   21   22 1
    26   22   23 1
    27   22   24 1
    28   22   25 1
    29    1   27 1
    30    1   28 1
    31    1   29 1
    32    2   30 1
    33    2   31 1
    34   11   32 1
    35   13   33 1
    36   17   34 1
    37   17   35 1
    38   17   36 1
    39   21   37 1
    40   21   38 1
    41   23   39 1
    42   23   40 1
    43   24   41 1
    44   24   42 1
    45   24   43 1
    46   25   44 1
    47   25   45 1
    48   25   46 1
    49   26   47 1
    50   26   48 1
@<TRIPOS>MOLECULE
ZINC00805350
 42 44 0 0 0
SMALL
NO_CHARGES


@<TRIPOS>ATOM
      1 C           3.051    -4.066    -5.864  C    
      2 O           3.756    -4.243    -4.618  O    
      3 C           3.113    -4.928    -3.613  C    
      4 C           2.644    -6.245    -3.851  C    
      5 C           2.125    -7.028    -2.806  C    
      6 C           2.107    -6.516    -1.502  C    
      7 C           2.600    -5.222    -1.252  C    
      8 C           3.107    -4.392    -2.288  C    
      9 N           3.580    -3.131    -1.981  N    
     10 C           3.372    -1.968    -2.823  C    
     11 C           4.738    -1.370    -3.253  C    
     12 N           5.563    -1.119    -2.077  N    
     13 C           5.753    -2.279    -1.219  C    
     14 C           4.383    -2.874    -0.793  C    
     15 C           6.122     0.086    -1.839  C    
     16 O           6.033     0.996    -2.654  O    
     17 C           6.834     0.420    -0.692  C    
     18 C           6.131     0.525     0.533  C    
     19 C           6.806     0.857     1.720  C    
     20 C           8.193     1.100     1.703  C    
     21 C           8.903     1.007     0.490  C    
     22 C           8.234     0.670    -0.707  C    
     23 Cl          9.162     0.542    -2.126  Cl   
     24 Cl          9.004     1.496     3.137  Cl   
     25 H           3.172    -4.962    -6.494  H    
     26 H           3.500    -3.215    -6.386  H    
     27 H           1.976    -3.861    -5.720  H    
     28 H           2.697    -6.649    -4.789  H    
     29 H           1.777    -7.977    -2.988  H    
     30 H           1.742    -7.087    -0.731  H    
     31 H           2.539    -4.871    -0.293  H    
     32 H           2.753    -2.170    -3.700  H    
     33 H           2.825    -1.217    -2.243  H    
     34 H           5.257    -2.078    -3.904  H    
     35 H           4.541    -0.476    -3.852  H    
     36 H           6.308    -3.036    -1.783  H    
     37 H           6.337    -2.084    -0.318  H    
     38 H           3.858    -2.166    -0.142  H    
     39 H           4.595    -3.773    -0.207  H    
     40 H           5.118     0.362     0.571  H    
     41 H           6.280     0.919     2.598  H    
     42 H           9.915     1.177     0.483  H    
@<TRIPOS>BOND
     1    1    2 1
     2    2    3 1
     3    3    8 ar
     4    3    4 ar
     5    4    5 ar
     6    5    6 ar
     7    6    7 ar
     8    7    8 ar
     9    8    9 1
    10    9   14 1
    11    9   10 1
    12   10   11 1
    13   11   12 1
    14   12   13 1
    15   12   15 1
    16   13   14 1
    17   15   16 2
    18   15   17 1
    19   17   22 ar
    20   17   18 ar
    21   18   19 ar
    22   19   20 ar
    23   20   21 ar
    24   20   24 1
    25   21   22 ar
    26   22   23 1
    27    1   25 1
    28    1   26 1
    29    1   27 1
    30    4   28 1
    31    5   29 1
    32    6   30 1
    33    7   31 1
    34   10   32 1
    35   10   33 1
    36   11   34 1
    37   11   35 1
    38   13   36 1
    39   13   37 1
    40   14   38 1
    41   14   39 1
    42   18   40 1
    43   19   41 1
    44   21   42 1
@<TRIPOS>MOLECULE
ZINC00806316
 41 44 0 0 0
SMALL
NO_CHARGES


@<TRIPOS>ATOM
      1 C           1.402    11.629     0.612  C    
      2 O           1.546    11.124     1.943  O    
      3 C           1.940    11.824     3.041  C    
      4 O           2.232    13.140     2.900  O    
      5 C           2.046    11.189     4.308  C    
      6 C           1.805     9.803     4.452  C    
      7 C           1.903     9.177     5.710  C    
      8 C           2.233     9.917     6.871  C    
      9 C           2.507    11.294     6.720  C    
     10 C           2.407    11.922     5.464  C    
     11 C           2.340     9.255     8.215  C    
     12 C           1.074     8.539     8.546  C    
     13 C          -0.261     8.909     8.730  C    
     14 N          -0.959     7.773     8.942  N    
     15 N          -0.159     6.755     8.919  N    
     16 C           1.094     7.160     8.689  C    
     17 O           2.220     6.390     8.569  O    
     18 C           3.408     7.031     8.451  C    
     19 C           3.532     8.372     8.258  C    
     20 C           4.693     8.924     8.202  C    
     21 N           5.733     9.413     8.118  N    
     22 N           4.417     6.229     8.506  N    
     23 C          -0.866    10.182     8.718  C    
     24 C          -2.244    10.442     8.643  C    
     25 C          -2.602    11.802     8.671  C    
     26 C          -1.523    12.675     8.783  C    
     27 S          -0.095    11.716     8.845  S    
     28 H           0.656    12.424     0.586  H    
     29 H           1.080    10.820    -0.041  H    
     30 H           2.358    12.014     0.252  H    
     31 H           1.557     9.229     3.643  H    
     32 H           1.728     8.172     5.774  H    
     33 H           2.786    11.856     7.528  H    
     34 H           2.605    12.924     5.408  H    
     35 H           2.460    10.005     9.004  H    
     36 H          -0.430     5.832     9.047  H    
     37 H           5.288     6.559     8.437  H    
     38 H           4.275     5.309     8.603  H    
     39 H          -2.943     9.703     8.568  H    
     40 H          -3.570    12.123     8.615  H    
     41 H          -1.570    13.694     8.825  H    
@<TRIPOS>BOND
     1    1    2 1
     2    2    3 1
     3    3    4 2
     4    3    5 1
     5    5   10 ar
     6    5    6 ar
     7    6    7 ar
     8    7    8 ar
     9    8    9 ar
    10    8   11 1
    11    9   10 ar
    12   11   19 1
    13   11   12 1
    14   12   16 2
    15   12   13 1
    16   13   14 2
    17   13   23 1
    18   14   15 1
    19   15   16 1
    20   16   17 1
    21   17   18 1
    22   18   19 2
    23   18   22 1
    24   19   20 1
    25   20   21 3
    26   23   27 1
    27   23   24 2
    28   24   25 1
    29   25   26 2
    30   26   27 1
    31    1   28 1
    32    1   29 1
    33    1   30 1
    34    6   31 1
    35    7   32 1
    36    9   33 1
    37   10   34 1
    38   11   35 1
    39   15   36 1
    40   22   37 1
    41   22   38 1
    42   24   39 1
    43   25   40 1
    44   26   41 1
@<TRIPOS>MOLECULE
ZINC00807100
 42 45 0 0 0
SMALL
NO_CHARGES


@<TRIPOS>ATOM
      1 C           0.307     7.615    -0.077  C    
      2 C          -0.206     8.023    -1.322  C    
      3 C           0.284     7.443    -2.510  C    
      4 C           1.285     6.455    -2.445  C    
      5 C           1.787     6.046    -1.196  C    
      6 C           1.311     6.612     0.023  C    
      7 N           1.842     6.202     1.238  N    
      8 C           1.373     6.392     2.499  C    
      9 C           2.260     5.806     3.394  C    
     10 C           3.260     5.256     2.615  C    
     11 N           2.962     5.526     1.334  N    
     12 C           2.018     5.861     4.760  C    
     13 O           2.831     5.331     5.506  O    
     14 N           0.919     6.504     5.224  N    
     15 C           0.038     7.072     4.328  C    
     16 N           0.262     7.010     2.991  N    
     17 C           0.659     6.619     6.651  C    
     18 C           1.505     7.573     7.375  C    
     19 O           2.273     8.238     6.686  O    
     20 N           1.477     7.761     8.711  N    
     21 C           0.577     7.059     9.615  C    
     22 C          -0.240     8.075    10.451  C    
     23 O           0.631     9.021    11.104  O    
     24 C           1.518     9.717    10.207  C    
     25 C           2.357     8.716     9.378  C    
     26 F          -0.184     7.826    -3.667  F    
     27 H          -0.051     8.081     0.759  H    
     28 H          -0.929     8.748    -1.366  H    
     29 H           1.647     6.031    -3.307  H    
     30 H           2.507     5.319    -1.181  H    
     31 H           4.081     4.746     2.946  H    
     32 H          -0.800     7.567     4.637  H    
     33 H          -0.383     6.903     6.831  H    
     34 H           0.783     5.627     7.094  H    
     35 H          -0.129     6.388     9.124  H    
     36 H           1.170     6.442    10.294  H    
     37 H          -0.950     8.606     9.810  H    
     38 H          -0.807     7.540    11.217  H    
     39 H           0.938    10.367     9.549  H    
     40 H           2.183    10.347    10.804  H    
     41 H           3.019     8.171    10.057  H    
     42 H           2.994     9.292     8.704  H    
@<TRIPOS>BOND
     1    1    6 ar
     2    1    2 ar
     3    2    3 ar
     4    3    4 ar
     5    3   26 1
     6    4    5 ar
     7    5    6 ar
     8    6    7 1
     9    7   11 1
    10    7    8 1
    11    8   16 1
    12    8    9 2
    13    9   10 1
    14    9   12 1
    15   10   11 2
    16   12   13 2
    17   12   14 1
    18   14   15 1
    19   14   17 1
    20   15   16 2
    21   17   18 1
    22   18   19 2
    23   18   20 1
    24   20   25 1
    25   20   21 1
    26   21   22 1
    27   22   23 1
    28   23   24 1
    29   24   25 1
    30    1   27 1
    31    2   28 1
    32    4   29 1
    33    5   30 1
    34   10   31 1
    35   15   32 1
    36   17   33 1
    37   17   34 1
    38   21   35 1
    39   21   36 1
    40   22   37 1
    41   22   38 1
    42   24   39 1
    43   24   40 1
    44   25   41 1
    45   25   42 1
@<TRIPOS>MOLECULE
ZINC00812162
 38 39 0 0 0
SMALL
NO_CHARGES


@<TRIPOS>ATOM
      1 C           6.024    -8.063     0.628  C    
      2 C           5.352    -9.273     0.871  C    
      3 C           4.080    -9.255     1.467  C    
      4 C           3.486    -8.032     1.836  C    
      5 C           4.165    -6.803     1.634  C    
      6 C           5.435    -6.840     0.999  C    
      7 N           3.531    -5.655     2.037  N    
      8 C           4.026    -4.464     2.372  C    
      9 O           5.233    -4.238     2.399  O    
     10 C           3.129    -3.407     2.805  C    
     11 C           2.677    -0.970     2.739  C    
     12 C           2.932     0.433     2.126  C    
     13 C           2.147     0.710     0.817  C    
     14 C           2.764     0.122    -0.481  C    
     15 C           3.462    -1.260    -0.369  C    
     16 C           2.785    -2.280     0.587  C    
     17 F           2.296    -8.064     2.379  F    
     18 N           3.270    -2.139     2.005  N    
     19 H           6.939    -8.073     0.174  H    
     20 H           5.783   -10.161     0.602  H    
     21 H           3.591   -10.138     1.631  H    
     22 H           5.933    -5.978     0.772  H    
     23 H           2.573    -5.744     2.160  H    
     24 H           2.085    -3.737     2.779  H    
     25 H           3.377    -3.223     3.854  H    
     26 H           3.119    -0.932     3.742  H    
     27 H           1.602    -1.117     2.872  H    
     28 H           2.612     1.175     2.865  H    
     29 H           4.004     0.578     1.960  H    
     30 H           1.127     0.332     0.930  H    
     31 H           2.067     1.794     0.682  H    
     32 H           1.968     0.047    -1.224  H    
     33 H           3.499     0.833    -0.872  H    
     34 H           3.501    -1.693    -1.372  H    
     35 H           4.498    -1.115    -0.047  H    
     36 H           1.692    -2.193     0.532  H    
     37 H           3.035    -3.271     0.203  H    
     38 H           4.276    -1.956     1.949  H    
@<TRIPOS>BOND
     1    1    6 ar
     2    1    2 ar
     3    2    3 ar
     4    3    4 ar
     5    4    5 ar
     6    4   17 1
     7    5    6 ar
     8    5    7 1
     9    7    8 1
    10    8    9 2
    11    8   10 1
    12   10   18 1
    13   11   12 1
    14   11   18 1
    15   12   13 1
    16   13   14 1
    17   14   15 1
    18   15   16 1
    19   16   18 1
    20    1   19 1
    21    2   20 1
    22    3   21 1
    23    6   22 1
    24    7   23 1
    25   10   24 1
    26   10   25 1
    27   11   26 1
    28   11   27 1
    29   12   28 1
    30   12   29 1
    31   13   30 1
    32   13   31 1
    33   14   32 1
    34   14   33 1
    35   15   34 1
    36   15   35 1
    37   16   36 1
    38   16   37 1
    39   18   38 1
@<TRIPOS>MOLECULE
ZINC00816079
 56 59 0 0 0
SMALL
NO_CHARGES


@<TRIPOS>ATOM
      1 C          -0.027    11.679     3.209  C    
      2 C           0.423    10.338     3.575  C    
      3 C           0.192     9.719     4.763  C    
      4 C           0.636     8.314     4.945  C    
      5 C           1.214     7.671     3.740  C    
      6 C           1.448     8.445     2.649  C    
      7 N           1.083     9.706     2.632  N    
      8 C           2.074     7.925     1.433  C    
      9 C           3.019     6.737     1.740  C    
     10 C           2.320     5.705     2.667  C    
     11 C           1.530     6.325     3.722  C    
     12 O           1.041     5.570     4.552  O    
     13 C           1.595     8.201     6.095  C    
     14 C           2.903     8.741     6.015  C    
     15 C           3.784     8.667     7.110  C    
     16 C           3.375     8.041     8.307  C    
     17 C           2.093     7.456     8.384  C    
     18 C           1.209     7.550     7.295  C    
     19 S           4.471     7.974     9.656  S    
     20 C           3.491     9.001    10.785  C    
     21 C          -0.536    10.306     5.766  C    
     22 O          -1.706     9.943     5.791  O    
     23 N          -0.061    11.194     6.667  N    
     24 C          -0.891    11.700     7.758  C    
     25 C          -0.944    13.252     7.768  C    
     26 C           0.485    13.851     7.784  C    
     27 C           1.337    13.252     6.636  C    
     28 C           1.302    11.700     6.657  C    
     29 H           0.837    12.308     2.990  H    
     30 H          -0.610    12.172     3.987  H    
     31 H          -0.652    11.626     2.315  H    
     32 H          -0.274     7.746     5.162  H    
     33 H           1.272    10.193     1.853  H    
     34 H           1.286     7.596     0.746  H    
     35 H           2.656     8.704     0.932  H    
     36 H           3.327     6.254     0.810  H    
     37 H           3.915     7.117     2.237  H    
     38 H           1.658     5.077     2.067  H    
     39 H           3.085     5.065     3.112  H    
     40 H           3.218     9.201     5.160  H    
     41 H           4.721     9.075     7.031  H    
     42 H           1.806     6.972     9.238  H    
     43 H           0.279     7.138     7.382  H    
     44 H           3.318     9.992    10.351  H    
     45 H           4.034     9.118    11.726  H    
     46 H           2.528     8.528    10.996  H    
     47 H          -1.924    11.336     7.737  H    
     48 H          -0.463    11.359     8.706  H    
     49 H          -1.471    13.602     6.878  H    
     50 H          -1.489    13.601     8.650  H    
     51 H           0.435    14.937     7.673  H    
     52 H           0.965    13.630     8.744  H    
     53 H           0.950    13.610     5.676  H    
     54 H           2.373    13.596     6.732  H    
     55 H           1.816    11.342     7.553  H    
     56 H           1.886    11.359     5.804  H    
@<TRIPOS>BOND
     1    1    2 1
     2    2    7 1
     3    2    3 2
     4    3    4 1
     5    3   21 1
     6    4    5 1
     7    4   13 1
     8    5   11 1
     9    5    6 2
    10    6    7 1
    11    6    8 1
    12    8    9 1
    13    9   10 1
    14   10   11 1
    15   11   12 2
    16   13   18 ar
    17   13   14 ar
    18   14   15 ar
    19   15   16 ar
    20   16   17 ar
    21   16   19 1
    22   17   18 ar
    23   19   20 1
    24   21   22 2
    25   21   23 1
    26   23   28 1
    27   23   24 1
    28   24   25 1
    29   25   26 1
    30   26   27 1
    31   27   28 1
    32    1   29 1
    33    1   30 1
    34    1   31 1
    35    4   32 1
    36    7   33 1
    37    8   34 1
    38    8   35 1
    39    9   36 1
    40    9   37 1
    41   10   38 1
    42   10   39 1
    43   14   40 1
    44   15   41 1
    45   17   42 1
    46   18   43 1
    47   20   44 1
    48   20   45 1
    49   20   46 1
    50   24   47 1
    51   24   48 1
    52   25   49 1
    53   25   50 1
    54   26   51 1
    55   26   52 1
    56   27   53 1
    57   27   54 1
    58   28   55 1
    59   28   56 1
@<TRIPOS>MOLECULE
ZINC00817877
 38 40 0 0 0
SMALL
NO_CHARGES


@<TRIPOS>ATOM
      1 C           6.194    -0.263   -11.064  C    
      2 C           5.615     0.904   -10.535  C    
      3 C           4.998     0.873    -9.271  C    
      4 C           4.947    -0.329    -8.526  C    
      5 C           5.529    -1.497    -9.070  C    
      6 C           6.148    -1.464   -10.333  C    
      7 N           4.345    -0.368    -7.286  N    
      8 C           5.074    -0.519    -6.154  C    
      9 O           6.301    -0.496    -6.228  O    
     10 C           4.462    -0.667    -4.910  C    
     11 C           5.139    -1.183    -3.854  C    
     12 N           4.598    -1.476    -2.663  N    
     13 C           5.165    -2.058    -1.571  C    
     14 C           6.515    -2.477    -1.462  C    
     15 C           6.985    -3.095    -0.288  C    
     16 C           6.118    -3.310     0.800  C    
     17 C           4.779    -2.882     0.713  C    
     18 C           4.310    -2.267    -0.464  C    
     19 S           6.698    -4.081     2.247  S    
     20 C           6.185    -5.568     1.803  C    
     21 N           5.804    -6.586     1.443  N    
     22 C           3.106    -0.375    -4.885  C    
     23 O           2.464    -0.193    -3.860  O    
     24 N           2.420    -0.218    -6.010  N    
     25 C           3.005    -0.246    -7.199  C    
     26 O           2.267    -0.118    -8.170  O    
     27 H           6.649    -0.240   -11.978  H    
     28 H           5.649     1.777   -11.064  H    
     29 H           4.588     1.728    -8.891  H    
     30 H           5.500    -2.375    -8.550  H    
     31 H           6.564    -2.315   -10.720  H    
     32 H           6.102    -1.391    -3.973  H    
     33 H           3.658    -1.269    -2.566  H    
     34 H           7.170    -2.346    -2.231  H    
     35 H           7.961    -3.394    -0.237  H    
     36 H           4.136    -3.026     1.495  H    
     37 H           3.329    -1.977    -0.509  H    
     38 H           1.464    -0.059    -5.959  H    
@<TRIPOS>BOND
     1    1    6 ar
     2    1    2 ar
     3    2    3 ar
     4    3    4 ar
     5    4    5 ar
     6    4    7 1
     7    5    6 ar
     8    7   25 1
     9    7    8 1
    10    8    9 2
    11    8   10 1
    12   10   11 2
    13   10   22 1
    14   11   12 1
    15   12   13 1
    16   13   18 ar
    17   13   14 ar
    18   14   15 ar
    19   15   16 ar
    20   16   17 ar
    21   16   19 1
    22   17   18 ar
    23   19   20 1
    24   20   21 3
    25   22   23 2
    26   22   24 1
    27   24   25 1
    28   25   26 2
    29    1   27 1
    30    2   28 1
    31    3   29 1
    32    5   30 1
    33    6   31 1
    34   11   32 1
    35   12   33 1
    36   14   34 1
    37   15   35 1
    38   17   36 1
    39   18   37 1
    40   24   38 1
@<TRIPOS>MOLECULE
ZINC00828380
 51 55 0 0 0
SMALL
NO_CHARGES


@<TRIPOS>ATOM
      1 C           1.579    -9.266     9.314  C    
      2 C           0.205    -9.282     8.588  C    
      3 C           0.320    -9.276     7.035  C    
      4 C           0.811    -7.910     6.457  C    
      5 C           0.457    -6.734     7.313  C    
      6 C           0.908    -5.450     6.923  C    
      7 C           0.703    -4.333     7.749  C    
      8 C           0.080    -4.487     8.996  C    
      9 C          -0.365    -5.756     9.403  C    
     10 C          -0.220    -6.892     8.561  C    
     11 N          -0.650    -8.159     8.971  N    
     12 C          -1.818    -8.357     9.627  C    
     13 O          -2.020    -9.414    10.212  O    
     14 C          -2.904    -7.476     9.625  C    
     15 C          -3.359    -6.885     8.416  C    
     16 C          -4.458    -6.001     8.409  C    
     17 C          -5.110    -5.711     9.622  C    
     18 C          -4.682    -6.287    10.807  C    
     19 C          -3.590    -7.173    10.832  C    
     20 O          -5.426    -5.886    11.859  O    
     21 C          -6.361    -4.992    11.230  C    
     22 O          -6.169    -4.903     9.807  O    
     23 N           0.296    -7.715     5.127  N    
     24 C           0.723    -8.286     3.966  C    
     25 C           1.798    -9.206     3.864  C    
     26 C           2.183    -9.728     2.613  C    
     27 C           1.498    -9.340     1.446  C    
     28 C           0.422    -8.438     1.533  C    
     29 C           0.036    -7.918     2.785  C    
     30 H           2.146    -8.362     9.081  H    
     31 H           2.172   -10.135     9.013  H    
     32 H           1.428    -9.310    10.396  H    
     33 H          -0.249   -10.243     8.845  H    
     34 H           0.986   -10.080     6.709  H    
     35 H          -0.676    -9.494     6.627  H    
     36 H           1.904    -7.929     6.416  H    
     37 H           1.408    -5.325     6.038  H    
     38 H           1.033    -3.410     7.450  H    
     39 H          -0.032    -3.679     9.615  H    
     40 H          -0.782    -5.849    10.332  H    
     41 H          -2.903    -7.106     7.526  H    
     42 H          -4.787    -5.582     7.537  H    
     43 H          -3.295    -7.579    11.727  H    
     44 H          -7.377    -5.341    11.432  H    
     45 H          -6.245    -3.995    11.664  H    
     46 H          -0.432    -7.079     5.042  H    
     47 H           2.318    -9.498     4.693  H    
     48 H           2.963   -10.388     2.551  H    
     49 H           1.786    -9.711     0.536  H    
     50 H          -0.079    -8.159     0.686  H    
     51 H          -0.753    -7.269     2.829  H    
@<TRIPOS>BOND
     1    1    2 1
     2    2   11 1
     3    2    3 1
     4    3    4 1
     5    4    5 1
     6    4   23 1
     7    5   10 ar
     8    5    6 ar
     9    6    7 ar
    10    7    8 ar
    11    8    9 ar
    12    9   10 ar
    13   10   11 1
    14   11   12 1
    15   12   13 2
    16   12   14 1
    17   14   19 ar
    18   14   15 ar
    19   15   16 ar
    20   16   17 ar
    21   17   22 1
    22   17   18 ar
    23   18   19 ar
    24   18   20 1
    25   20   21 1
    26   21   22 1
    27   23   24 1
    28   24   29 ar
    29   24   25 ar
    30   25   26 ar
    31   26   27 ar
    32   27   28 ar
    33   28   29 ar
    34    1   30 1
    35    1   31 1
    36    1   32 1
    37    2   33 1
    38    3   34 1
    39    3   35 1
    40    4   36 1
    41    6   37 1
    42    7   38 1
    43    8   39 1
    44    9   40 1
    45   15   41 1
    46   16   42 1
    47   19   43 1
    48   21   44 1
    49   21   45 1
    50   23   46 1
    51   25   47 1
    52   26   48 1
    53   27   49 1
    54   28   50 1
    55   29   51 1
@<TRIPOS>MOLECULE
ZINC00843560
 55 60 0 0 0
SMALL
NO_CHARGES


@<TRIPOS>ATOM
      1 C           6.054   -11.639    -2.557  C    
      2 O           6.249   -10.314    -3.083  O    
      3 C           6.540    -9.328    -2.177  C    
      4 C           7.645    -9.399    -1.298  C    
      5 C           7.937    -8.330    -0.434  C    
      6 C           7.144    -7.158    -0.433  C    
      7 C           6.062    -7.080    -1.343  C    
      8 C           5.756    -8.151    -2.207  C    
      9 O           4.776    -8.001    -3.153  O    
     10 C           3.447    -8.285    -2.680  C    
     11 C           7.464    -6.020     0.485  C    
     12 C           6.360    -5.743     1.444  C    
     13 C           5.710    -4.542     1.427  C    
     14 C           4.661    -4.272     2.323  C    
     15 C           3.775    -3.171     2.193  C    
     16 C           2.735    -2.966     3.121  C    
     17 C           2.570    -3.849     4.202  C    
     18 C           3.434    -4.946     4.347  C    
     19 C           4.468    -5.159     3.414  C    
     20 O           5.321    -6.209     3.627  O    
     21 C           6.022    -6.744     2.479  C    
     22 C           5.265    -7.927     1.957  C    
     23 C           3.981    -7.776     1.374  C    
     24 C           3.282    -8.890     0.873  C    
     25 C           3.859   -10.174     0.926  C    
     26 C           5.131   -10.344     1.503  C    
     27 C           5.821    -9.231     2.023  C    
     28 F           3.217   -11.206     0.447  F    
     29 N           6.085    -3.574     0.562  N    
     30 C           7.128    -3.726    -0.280  C    
     31 N           7.817    -4.877    -0.321  N    
     32 N           8.779    -4.755    -1.186  N    
     33 C           8.689    -3.515    -1.702  C    
     34 N           7.662    -2.854    -1.143  N    
     35 H           7.018   -12.081    -2.295  H    
     36 H           5.596   -12.249    -3.339  H    
     37 H           5.398   -11.645    -1.682  H    
     38 H           8.250   -10.225    -1.295  H    
     39 H           8.742    -8.412     0.191  H    
     40 H           5.488    -6.232    -1.385  H    
     41 H           3.349    -9.316    -2.336  H    
     42 H           2.758    -8.142    -3.514  H    
     43 H           3.164    -7.597    -1.880  H    
     44 H           8.355    -6.250     1.080  H    
     45 H           3.869    -2.510     1.422  H    
     46 H           2.102    -2.170     3.015  H    
     47 H           1.829    -3.691     4.890  H    
     48 H           3.317    -5.584     5.136  H    
     49 H           6.970    -7.083     2.904  H    
     50 H           3.547    -6.852     1.303  H    
     51 H           2.355    -8.760     0.458  H    
     52 H           5.557   -11.275     1.544  H    
     53 H           6.745    -9.381     2.435  H    
     54 H           5.639    -2.716     0.581  H    
     55 H           9.313    -3.129    -2.411  H    
@<TRIPOS>BOND
     1    1    2 1
     2    2    3 1
     3    3    8 ar
     4    3    4 ar
     5    4    5 ar
     6    5    6 ar
     7    6    7 ar
     8    6   11 1
     9    7    8 ar
    10    8    9 1
    11    9   10 1
    12   11   31 1
    13   11   12 1
    14   12   21 1
    15   12   13 2
    16   13   14 1
    17   13   29 1
    18   14   19 ar
    19   14   15 ar
    20   15   16 ar
    21   16   17 ar
    22   17   18 ar
    23   18   19 ar
    24   19   20 1
    25   20   21 1
    26   21   22 1
    27   22   27 ar
    28   22   23 ar
    29   23   24 ar
    30   24   25 ar
    31   25   26 ar
    32   25   28 1
    33   26   27 ar
    34   29   30 1
    35   30   34 2
    36   30   31 1
    37   31   32 1
    38   32   33 2
    39   33   34 1
    40    1   35 1
    41    1   36 1
    42    1   37 1
    43    4   38 1
    44    5   39 1
    45    7   40 1
    46   10   41 1
    47   10   42 1
    48   10   43 1
    49   11   44 1
    50   15   45 1
    51   16   46 1
    52   17   47 1
    53   18   48 1
    54   21   49 1
    55   23   50 1
    56   24   51 1
    57   26   52 1
    58   27   53 1
    59   29   54 1
    60   33   55 1
@<TRIPOS>MOLECULE
ZINC00867309
 56 60 0 0 0
SMALL
NO_CHARGES


@<TRIPOS>ATOM
      1 C           1.715     0.606    -1.366  C    
      2 C           2.103    -0.515    -0.521  C    
      3 O           1.313    -0.715     0.395  O    
      4 N           3.176    -1.329    -0.665  N    
      5 C           4.038    -1.192    -1.724  C    
      6 C           4.908    -0.078    -1.805  C    
      7 C           5.762     0.081    -2.910  C    
      8 C           5.773    -0.887    -3.926  C    
      9 C           4.952    -2.024    -3.826  C    
     10 C           4.087    -2.205    -2.723  C    
     11 N           3.364    -3.358    -2.698  N    
     12 C           2.523    -3.911    -1.790  C    
     13 C           2.371    -3.525    -0.487  C    
     14 C           3.346    -2.570     0.098  C    
     15 C           3.502    -2.436     1.593  C    
     16 C           3.615    -3.602     2.393  C    
     17 C           3.806    -3.526     3.783  C    
     18 C           3.922    -2.271     4.428  C    
     19 C           3.866    -1.109     3.632  C    
     20 C           3.670    -1.188     2.242  C    
     21 O           4.117    -2.050     5.778  O    
     22 C           4.137    -3.134     6.720  C    
     23 C           1.307    -4.020     0.247  C    
     24 O           0.810    -3.354     1.144  O    
     25 C           0.552    -5.212    -0.124  C    
     26 C           1.241    -6.017    -1.258  C    
     27 C           1.751    -5.032    -2.350  C    
     28 C           0.339    -7.054    -1.818  C    
     29 C           0.538    -8.432    -1.794  C    
     30 C          -0.551    -9.010    -2.423  C    
     31 C          -1.392    -7.973    -2.813  C    
     32 O          -0.841    -6.794    -2.440  O    
     33 H           0.719     0.423    -1.777  H    
     34 H           2.384     0.776    -2.206  H    
     35 H           1.683     1.523    -0.771  H    
     36 H           4.910     0.629    -1.063  H    
     37 H           6.372     0.898    -2.973  H    
     38 H           6.389    -0.770    -4.732  H    
     39 H           5.000    -2.730    -4.562  H    
     40 H           3.468    -3.885    -3.504  H    
     41 H           4.323    -3.022    -0.135  H    
     42 H           3.554    -4.527     1.962  H    
     43 H           3.859    -4.391     4.313  H    
     44 H           3.976    -0.187     4.068  H    
     45 H           3.675    -0.317     1.712  H    
     46 H           3.203    -3.699     6.689  H    
     47 H           4.251    -2.716     7.719  H    
     48 H           4.982    -3.800     6.532  H    
     49 H           0.440    -5.859     0.753  H    
     50 H          -0.446    -4.898    -0.444  H    
     51 H           2.117    -6.516    -0.825  H    
     52 H           0.907    -4.617    -2.905  H    
     53 H           2.362    -5.604    -3.054  H    
     54 H           1.332    -8.930    -1.395  H    
     55 H          -0.703   -10.012    -2.573  H    
     56 H          -2.281    -8.085    -3.303  H    
@<TRIPOS>BOND
     1    1    2 1
     2    2    3 2
     3    2    4 1
     4    4   14 1
     5    4    5 1
     6    5   10 ar
     7    5    6 ar
     8    6    7 ar
     9    7    8 ar
    10    8    9 ar
    11    9   10 ar
    12   10   11 1
    13   11   12 1
    14   12   27 1
    15   12   13 2
    16   13   14 1
    17   13   23 1
    18   14   15 1
    19   15   20 ar
    20   15   16 ar
    21   16   17 ar
    22   17   18 ar
    23   18   19 ar
    24   18   21 1
    25   19   20 ar
    26   21   22 1
    27   23   24 2
    28   23   25 1
    29   25   26 1
    30   26   27 1
    31   26   28 1
    32   28   32 1
    33   28   29 2
    34   29   30 1
    35   30   31 2
    36   31   32 1
    37    1   33 1
    38    1   34 1
    39    1   35 1
    40    6   36 1
    41    7   37 1
    42    8   38 1
    43    9   39 1
    44   11   40 1
    45   14   41 1
    46   16   42 1
    47   17   43 1
    48   19   44 1
    49   20   45 1
    50   22   46 1
    51   22   47 1
    52   22   48 1
    53   25   49 1
    54   25   50 1
    55   26   51 1
    56   27   52 1
    57   27   53 1
    58   29   54 1
    59   30   55 1
    60   31   56 1
@<TRIPOS>MOLECULE
ZINC00877733
 48 50 0 0 0
SMALL
NO_CHARGES


@<TRIPOS>ATOM
      1 C          -3.370    -5.212    -4.961  C    
      2 N          -2.444    -4.262    -5.551  N    
      3 C          -1.575    -4.790    -6.584  C    
      4 C          -2.381    -2.940    -5.151  C    
      5 C          -3.460    -2.307    -4.476  C    
      6 C          -3.406    -0.960    -4.077  C    
      7 C          -2.261    -0.169    -4.324  C    
      8 C          -1.189    -0.776    -5.018  C    
      9 C          -1.249    -2.122    -5.420  C    
     10 C          -2.224     1.182    -3.946  C    
     11 O          -3.267     1.807    -4.108  O    
     12 N          -1.160     1.824    -3.435  N    
     13 C          -1.025     3.244    -3.186  C    
     14 C           0.184     3.241    -2.188  C    
     15 C           1.132     4.477    -2.163  C    
     16 C           2.097     4.534    -0.944  C    
     17 C           2.750     3.193    -0.507  C    
     18 C           3.119     2.250    -1.681  C    
     19 C           2.005     1.486    -2.228  C    
     20 C           0.777     1.962    -2.509  C    
     21 N          -0.103     1.222    -3.069  N    
     22 C          -0.817     4.016    -4.538  C    
     23 F          -1.871     3.838    -5.400  F    
     24 F          -0.721     5.376    -4.356  F    
     25 F           0.309     3.592    -5.202  F    
     26 O          -2.154     3.792    -2.492  O    
     27 H          -4.265    -5.299    -5.591  H    
     28 H          -3.670    -4.932    -3.948  H    
     29 H          -2.908    -6.203    -4.868  H    
     30 H          -0.611    -5.070    -6.141  H    
     31 H          -1.406    -4.053    -7.377  H    
     32 H          -2.003    -5.676    -7.072  H    
     33 H          -4.333    -2.810    -4.296  H    
     34 H          -4.218    -0.564    -3.595  H    
     35 H          -0.354    -0.235    -5.258  H    
     36 H          -0.433    -2.505    -5.897  H    
     37 H          -0.219     3.139    -1.171  H    
     38 H           1.722     4.502    -3.085  H    
     39 H           0.527     5.386    -2.130  H    
     40 H           2.892     5.247    -1.185  H    
     41 H           1.557     4.939    -0.084  H    
     42 H           3.661     3.426     0.055  H    
     43 H           2.079     2.668     0.180  H    
     44 H           3.579     2.830    -2.483  H    
     45 H           3.880     1.552    -1.326  H    
     46 H           2.199     0.538    -2.471  H    
     47 H           0.001     0.293    -3.140  H    
     48 H          -2.903     3.738    -3.121  H    
@<TRIPOS>BOND
     1    1    2 1
     2    2    3 1
     3    2    4 1
     4    4    9 ar
     5    4    5 ar
     6    5    6 ar
     7    6    7 ar
     8    7    8 ar
     9    7   10 1
    10    8    9 ar
    11   10   11 2
    12   10   12 1
    13   12   13 1
    14   12   21 1
    15   13   14 1
    16   13   22 1
    17   13   26 1
    18   14   15 1
    19   14   20 1
    20   15   16 1
    21   16   17 1
    22   17   18 1
    23   18   19 1
    24   19   20 2
    25   20   21 1
    26   22   23 1
    27   22   24 1
    28   22   25 1
    29    1   27 1
    30    1   28 1
    31    1   29 1
    32    3   30 1
    33    3   31 1
    34    3   32 1
    35    5   33 1
    36    6   34 1
    37    8   35 1
    38    9   36 1
    39   14   37 1
    40   15   38 1
    41   15   39 1
    42   16   40 1
    43   16   41 1
    44   17   42 1
    45   17   43 1
    46   18   44 1
    47   18   45 1
    48   19   46 1
    49   21   47 1
    50   26   48 1
@<TRIPOS>MOLECULE
ZINC00879347
 39 41 0 0 0
SMALL
NO_CHARGES


@<TRIPOS>ATOM
      1 C          -2.477     7.471    -3.063  C    
      2 C          -3.876     7.782    -2.851  C    
      3 C          -4.642     7.197    -1.913  C    
      4 N          -4.237     6.303    -1.095  N    
      5 N          -5.126     5.882    -0.289  N    
      6 C          -6.384     6.545    -0.520  C    
      7 C          -6.027     7.508    -1.686  C    
      8 C          -6.914     7.296     0.669  C    
      9 C          -8.297     7.320     0.974  C    
     10 C          -8.770     8.089     2.055  C    
     11 N          -7.894     8.803     2.812  N    
     12 C          -6.560     8.812     2.559  C    
     13 C          -6.043     8.070     1.481  C    
     14 O          -7.307     5.551    -0.982  O    
     15 C          -4.888     4.921     0.609  C    
     16 O          -5.779     4.506     1.335  O    
     17 C          -3.639     4.361     0.802  C    
     18 C          -2.741     4.969     1.708  C    
     19 C          -1.463     4.421     1.921  C    
     20 C          -1.071     3.261     1.228  C    
     21 C          -1.950     2.661     0.308  C    
     22 C          -3.231     3.208     0.086  C    
     23 Br         -4.327     2.385    -1.177  Br   
     24 H          -1.904     7.676    -2.155  H    
     25 H          -2.067     8.082    -3.872  H    
     26 H          -2.360     6.419    -3.334  H    
     27 H          -4.294     8.473    -3.434  H    
     28 H          -3.363     5.972    -1.103  H    
     29 H          -6.129     8.565    -1.419  H    
     30 H          -6.619     7.309    -2.583  H    
     31 H          -8.976     6.799     0.409  H    
     32 H          -9.766     8.118     2.277  H    
     33 H          -5.940     9.366     3.154  H    
     34 H          -5.038     8.100     1.291  H    
     35 H          -6.866     5.112    -1.738  H    
     36 H          -3.009     5.816     2.217  H    
     37 H          -0.819     4.864     2.581  H    
     38 H          -0.142     2.858     1.384  H    
     39 H          -1.652     1.827    -0.206  H    
@<TRIPOS>BOND
     1    1    2 1
     2    2    3 2
     3    3    7 1
     4    3    4 1
     5    4    5 1
     6    5    6 1
     7    5   15 1
     8    6    7 1
     9    6    8 1
    10    6   14 1
    11    8   13 ar
    12    8    9 ar
    13    9   10 ar
    14   10   11 ar
    15   11   12 ar
    16   12   13 ar
    17   15   16 2
    18   15   17 1
    19   17   22 ar
    20   17   18 ar
    21   18   19 ar
    22   19   20 ar
    23   20   21 ar
    24   21   22 ar
    25   22   23 1
    26    1   24 1
    27    1   25 1
    28    1   26 1
    29    2   27 1
    30    4   28 1
    31    7   29 1
    32    7   30 1
    33    9   31 1
    34   10   32 1
    35   12   33 1
    36   13   34 1
    37   14   35 1
    38   18   36 1
    39   19   37 1
    40   20   38 1
    41   21   39 1
@<TRIPOS>MOLECULE
ZINC00893125
 44 46 0 0 0
SMALL
NO_CHARGES


@<TRIPOS>ATOM
      1 C           3.536    -2.773    -7.389  C    
      2 C           3.030    -2.619    -6.004  C    
      3 C           1.818    -1.936    -5.727  C    
      4 C           1.356    -1.805    -4.403  C    
      5 C           2.083    -2.373    -3.334  C    
      6 C           3.293    -3.048    -3.604  C    
      7 C           3.765    -3.167    -4.925  C    
      8 S           1.512    -2.257    -1.694  S    
      9 O           1.432    -3.723    -1.077  O    
     10 O           0.000    -1.761    -1.620  O    
     11 N           2.478    -1.284    -0.700  N    
     12 C           2.335     0.147    -0.739  C    
     13 C           3.618     0.789    -1.332  C    
     14 N           4.795     0.288    -0.633  N    
     15 C           4.925    -1.162    -0.649  C    
     16 C           3.651    -1.823    -0.060  C    
     17 C           5.689     1.114    -0.054  C    
     18 O           5.605     2.327    -0.200  O    
     19 C           6.768     0.712     0.723  C    
     20 C           6.565     0.046     1.957  C    
     21 C           7.663    -0.347     2.748  C    
     22 C           8.978    -0.073     2.318  C    
     23 C           9.193     0.589     1.094  C    
     24 C           8.094     0.985     0.303  C    
     25 F           9.996    -0.433     3.055  F    
     26 H           4.510    -2.280    -7.478  H    
     27 H           2.857    -2.326    -8.124  H    
     28 H           3.651    -3.831    -7.626  H    
     29 H           1.270    -1.528    -6.492  H    
     30 H           0.482    -1.301    -4.227  H    
     31 H           3.831    -3.464    -2.839  H    
     32 H           4.646    -3.663    -5.096  H    
     33 H           1.469     0.459    -1.328  H    
     34 H           2.187     0.518     0.280  H    
     35 H           3.690     0.519    -2.392  H    
     36 H           3.504     1.875    -1.289  H    
     37 H           5.049    -1.487    -1.685  H    
     38 H           5.795    -1.543    -0.107  H    
     39 H           3.599    -1.613     1.012  H    
     40 H           3.728    -2.907    -0.176  H    
     41 H           5.616    -0.151     2.293  H    
     42 H           7.503    -0.829     3.638  H    
     43 H          10.146     0.786     0.774  H    
     44 H           8.270     1.463    -0.588  H    
@<TRIPOS>BOND
     1    1    2 1
     2    2    7 ar
     3    2    3 ar
     4    3    4 ar
     5    4    5 ar
     6    5    6 ar
     7    5    8 1
     8    6    7 ar
     9    8    9 2
    10    8   10 2
    11    8   11 1
    12   11   16 1
    13   11   12 1
    14   12   13 1
    15   13   14 1
    16   14   15 1
    17   14   17 1
    18   15   16 1
    19   17   18 2
    20   17   19 1
    21   19   24 ar
    22   19   20 ar
    23   20   21 ar
    24   21   22 ar
    25   22   23 ar
    26   22   25 1
    27   23   24 ar
    28    1   26 1
    29    1   27 1
    30    1   28 1
    31    3   29 1
    32    4   30 1
    33    6   31 1
    34    7   32 1
    35   12   33 1
    36   12   34 1
    37   13   35 1
    38   13   36 1
    39   15   37 1
    40   15   38 1
    41   16   39 1
    42   16   40 1
    43   20   41 1
    44   21   42 1
    45   23   43 1
    46   24   44 1
@<TRIPOS>MOLECULE
ZINC00904155
 44 47 0 0 0
SMALL
NO_CHARGES


@<TRIPOS>ATOM
      1 C         -10.665     8.042     1.053  C    
      2 C          -9.563     7.333     1.694  C    
      3 C          -8.546     8.025     2.334  C    
      4 C          -7.527     7.361     2.924  C    
      5 N          -7.505     6.011     2.889  N    
      6 C          -8.481     5.311     2.271  C    
      7 C          -9.536     5.978     1.658  C    
      8 N          -8.235     3.997     2.357  N    
      9 C          -7.087     3.858     3.041  C    
     10 C          -6.608     5.132     3.378  C    
     11 N          -5.478     5.528     4.012  N    
     12 C          -4.402     4.708     4.467  C    
     13 C          -3.217     5.576     4.962  C    
     14 C          -2.635     6.536     3.902  C    
     15 C          -1.161     6.679     4.312  C    
     16 C          -0.964     5.583     5.376  C    
     17 O          -2.117     4.737     5.327  O    
     18 C          -6.538     2.598     3.326  C    
     19 C          -6.715     2.008     4.600  C    
     20 C          -6.195     0.729     4.873  C    
     21 C          -5.491     0.024     3.878  C    
     22 C          -5.316     0.601     2.604  C    
     23 C          -5.841     1.877     2.328  C    
     24 F          -5.012    -1.158     4.130  F    
     25 H         -10.692     7.798    -0.011  H    
     26 H         -10.585     9.128     1.144  H    
     27 H         -11.611     7.739     1.508  H    
     28 H          -8.550     9.016     2.366  H    
     29 H          -6.802     7.869     3.377  H    
     30 H         -10.249     5.454     1.204  H    
     31 H          -5.353     6.486     4.113  H    
     32 H          -4.749     4.076     5.287  H    
     33 H          -4.057     4.071     3.650  H    
     34 H          -3.533     6.149     5.842  H    
     35 H          -2.699     6.098     2.901  H    
     36 H          -3.154     7.498     3.903  H    
     37 H          -0.503     6.520     3.454  H    
     38 H          -0.963     7.669     4.735  H    
     39 H          -0.067     4.992     5.177  H    
     40 H          -0.878     6.025     6.374  H    
     41 H          -7.230     2.505     5.332  H    
     42 H          -6.337     0.311     5.795  H    
     43 H          -4.812     0.092     1.875  H    
     44 H          -5.708     2.282     1.397  H    
@<TRIPOS>BOND
     1    1    2 1
     2    2    7 2
     3    2    3 1
     4    3    4 2
     5    4    5 1
     6    5   10 1
     7    5    6 1
     8    6    7 1
     9    6    8 2
    10    8    9 1
    11    9   10 2
    12    9   18 1
    13   10   11 1
    14   11   12 1
    15   12   13 1
    16   13   17 1
    17   13   14 1
    18   14   15 1
    19   15   16 1
    20   16   17 1
    21   18   23 ar
    22   18   19 ar
    23   19   20 ar
    24   20   21 ar
    25   21   22 ar
    26   21   24 1
    27   22   23 ar
    28    1   25 1
    29    1   26 1
    30    1   27 1
    31    3   28 1
    32    4   29 1
    33    7   30 1
    34   11   31 1
    35   12   32 1
    36   12   33 1
    37   13   34 1
    38   14   35 1
    39   14   36 1
    40   15   37 1
    41   15   38 1
    42   16   39 1
    43   16   40 1
    44   19   41 1
    45   20   42 1
    46   22   43 1
    47   23   44 1
@<TRIPOS>MOLECULE
ZINC00919393
 48 51 0 0 0
SMALL
NO_CHARGES


@<TRIPOS>ATOM
      1 C           4.878    -2.089    -0.700  C    
      2 C           3.613    -2.601    -1.300  C    
      3 C           3.680    -3.479    -2.408  C    
      4 C           2.512    -3.970    -3.011  C    
      5 C           1.262    -3.610    -2.493  C    
      6 C           1.151    -2.748    -1.377  C    
      7 C           2.340    -2.206    -0.800  C    
      8 N           2.317    -1.322     0.247  N    
      9 C           1.755    -0.120     0.256  C    
     10 O           1.151     0.301    -0.725  O    
     11 C           1.866     0.699     1.361  C    
     12 C           2.569     0.472     2.541  C    
     13 C           2.379     1.606     3.317  C    
     14 N           1.585     2.445     2.620  N    
     15 N           1.283     1.912     1.476  N    
     16 C           1.144     3.727     3.105  C    
     17 C           2.110     4.237     4.231  C    
     18 C           2.545     3.100     5.214  C    
     19 N           2.872     1.877     4.539  N    
     20 C           3.682     3.509     6.065  C    
     21 C           4.987     3.790     5.657  C    
     22 C           5.711     4.119     6.793  C    
     23 C           4.831     4.028     7.864  C    
     24 O           3.609     3.659     7.413  O    
     25 C          -0.359     3.683     3.520  C    
     26 F          -0.595     2.767     4.517  F    
     27 F          -0.799     4.911     3.951  F    
     28 F          -1.147     3.337     2.448  F    
     29 C          -0.224    -2.521    -0.854  C    
     30 H           4.910    -1.000    -0.773  H    
     31 H           5.763    -2.489    -1.200  H    
     32 H           4.929    -2.374     0.352  H    
     33 H           4.586    -3.767    -2.791  H    
     34 H           2.573    -4.599    -3.815  H    
     35 H           0.418    -3.998    -2.928  H    
     36 H           2.899    -1.526     0.998  H    
     37 H           3.129    -0.346     2.789  H    
     38 H           1.223     4.439     2.276  H    
     39 H           3.005     4.633     3.743  H    
     40 H           1.657     5.059     4.788  H    
     41 H           1.700     2.883     5.874  H    
     42 H           3.420     1.214     4.990  H    
     43 H           5.345     3.755     4.698  H    
     44 H           6.704     4.375     6.832  H    
     45 H           5.064     4.208     8.845  H    
     46 H          -0.835    -2.019    -1.609  H    
     47 H          -0.233    -1.924     0.054  H    
     48 H          -0.689    -3.480    -0.612  H    
@<TRIPOS>BOND
     1    1    2 1
     2    2    7 ar
     3    2    3 ar
     4    3    4 ar
     5    4    5 ar
     6    5    6 ar
     7    6    7 ar
     8    6   29 1
     9    7    8 1
    10    8    9 1
    11    9   10 2
    12    9   11 1
    13   11   15 2
    14   11   12 1
    15   12   13 2
    16   13   19 1
    17   13   14 1
    18   14   15 1
    19   14   16 1
    20   16   17 1
    21   16   25 1
    22   17   18 1
    23   18   19 1
    24   18   20 1
    25   20   24 1
    26   20   21 2
    27   21   22 1
    28   22   23 2
    29   23   24 1
    30   25   26 1
    31   25   27 1
    32   25   28 1
    33    1   30 1
    34    1   31 1
    35    1   32 1
    36    3   33 1
    37    4   34 1
    38    5   35 1
    39    8   36 1
    40   12   37 1
    41   16   38 1
    42   17   39 1
    43   17   40 1
    44   18   41 1
    45   19   42 1
    46   21   43 1
    47   22   44 1
    48   23   45 1
    49   29   46 1
    50   29   47 1
    51   29   48 1
@<TRIPOS>MOLECULE
ZINC00930079
 70 74 0 0 0
SMALL
NO_CHARGES


@<TRIPOS>ATOM
      1 C          -0.896     4.415    -3.436  C    
      2 C          -0.527     3.525    -2.309  C    
      3 C          -1.001     3.766    -0.995  C    
      4 C          -0.639     2.912     0.062  C    
      5 C           0.193     1.809    -0.176  C    
      6 C           0.674     1.545    -1.480  C    
      7 C           0.311     2.410    -2.541  C    
      8 C           1.501     0.435    -1.656  C    
      9 C           1.874    -0.370    -0.627  C    
     10 C           1.349    -0.079     0.629  C    
     11 O           1.577    -0.767     1.616  O    
     12 N           0.557     0.965     0.836  N    
     13 C           2.791    -1.526    -0.809  C    
     14 C           4.056    -1.289    -0.024  C    
     15 N           4.326    -2.114     0.997  N    
     16 N           5.406    -1.765     1.515  N    
     17 N           5.844    -0.787     0.927  N    
     18 N           5.095    -0.407    -0.030  N    
     19 C           5.405     0.822    -0.765  C    
     20 C           6.917     1.230    -0.614  C    
     21 C           5.156     0.682    -2.298  C    
     22 C           4.553     1.989    -0.177  C    
     23 C           1.759    -2.593    -2.882  C    
     24 C           1.471    -4.082    -2.581  C    
     25 C           2.687    -4.956    -2.967  C    
     26 C           4.034    -4.497    -2.298  C    
     27 C           4.181    -2.939    -2.527  C    
     28 C           5.253    -5.212    -3.004  C    
     29 C           5.358    -6.734    -2.716  C    
     30 C           5.410    -7.021    -1.197  C    
     31 C           4.219    -6.375    -0.448  C    
     32 C           4.096    -4.859    -0.767  C    
     33 N           2.998    -2.044    -2.227  N    
     34 H           0.007     4.847    -3.869  H    
     35 H          -1.548     5.232    -3.119  H    
     36 H          -1.418     3.839    -4.200  H    
     37 H          -1.610     4.563    -0.804  H    
     38 H          -0.989     3.100     1.006  H    
     39 H           0.660     2.230    -3.490  H    
     40 H           1.830     0.251    -2.574  H    
     41 H           0.218     1.137     1.726  H    
     42 H           2.279    -2.354    -0.312  H    
     43 H           7.173     1.408     0.432  H    
     44 H           7.140     2.144    -1.168  H    
     45 H           7.562     0.434    -0.991  H    
     46 H           5.751    -0.135    -2.713  H    
     47 H           5.426     1.605    -2.824  H    
     48 H           4.115     0.493    -2.510  H    
     49 H           3.490     1.795    -0.274  H    
     50 H           4.768     2.929    -0.692  H    
     51 H           4.773     2.123     0.885  H    
     52 H           1.875    -2.471    -3.963  H    
     53 H           0.870    -2.023    -2.607  H    
     54 H           1.226    -4.208    -1.526  H    
     55 H           0.601    -4.397    -3.163  H    
     56 H           2.451    -5.988    -2.715  H    
     57 H           2.785    -4.911    -4.055  H    
     58 H           5.078    -2.581    -2.018  H    
     59 H           4.391    -2.779    -3.592  H    
     60 H           5.201    -5.070    -4.087  H    
     61 H           6.188    -4.749    -2.672  H    
     62 H           4.508    -7.257    -3.161  H    
     63 H           6.265    -7.125    -3.184  H    
     64 H           5.398    -8.101    -1.029  H    
     65 H           6.345    -6.629    -0.787  H    
     66 H           3.292    -6.890    -0.714  H    
     67 H           4.363    -6.501     0.628  H    
     68 H           4.972    -4.372    -0.325  H    
     69 H           3.219    -4.481    -0.243  H    
     70 H           3.205    -1.205    -2.765  H    
@<TRIPOS>BOND
     1    1    2 1
     2    2    7 ar
     3    2    3 ar
     4    3    4 ar
     5    4    5 ar
     6    5   12 1
     7    5    6 ar
     8    6    7 ar
     9    6    8 1
    10    8    9 2
    11    9   10 1
    12    9   13 1
    13   10   11 2
    14   10   12 1
    15   13   14 1
    16   13   33 1
    17   14   18 1
    18   14   15 2
    19   15   16 1
    20   16   17 2
    21   17   18 1
    22   18   19 1
    23   19   20 1
    24   19   21 1
    25   19   22 1
    26   23   24 1
    27   23   33 1
    28   24   25 1
    29   25   26 1
    30   26   32 1
    31   26   27 1
    32   26   28 1
    33   27   33 1
    34   28   29 1
    35   29   30 1
    36   30   31 1
    37   31   32 1
    38    1   34 1
    39    1   35 1
    40    1   36 1
    41    3   37 1
    42    4   38 1
    43    7   39 1
    44    8   40 1
    45   12   41 1
    46   13   42 1
    47   20   43 1
    48   20   44 1
    49   20   45 1
    50   21   46 1
    51   21   47 1
    52   21   48 1
    53   22   49 1
    54   22   50 1
    55   22   51 1
    56   23   52 1
    57   23   53 1
    58   24   54 1
    59   24   55 1
    60   25   56 1
    61   25   57 1
    62   27   58 1
    63   27   59 1
    64   28   60 1
    65   28   61 1
    66   29   62 1
    67   29   63 1
    68   30   64 1
    69   30   65 1
    70   31   66 1
    71   31   67 1
    72   32   68 1
    73   32   69 1
    74   33   70 1
@<TRIPOS>MOLECULE
ZINC00981126
 44 46 0 0 0
SMALL
NO_CHARGES


@<TRIPOS>ATOM
      1 C           6.215   -12.334    -7.720  C    
      2 C           6.829   -11.092    -7.037  C    
      3 C           5.952    -9.801    -7.093  C    
      4 C           5.805    -9.211    -8.525  C    
      5 N           6.420    -8.775    -6.164  N    
      6 C           5.690    -8.243    -5.188  C    
      7 O           4.514    -8.546    -5.008  O    
      8 C           6.306    -7.257    -4.495  C    
      9 C           5.823    -6.429    -3.545  C    
     10 C           4.593    -6.518    -2.909  C    
     11 C           4.095    -7.661    -2.275  C    
     12 C           2.894    -7.312    -1.677  C    
     13 C           2.689    -5.963    -1.942  C    
     14 N           3.722    -5.498    -2.676  N    
     15 C           3.813    -4.204    -3.115  C    
     16 C           4.094    -3.190    -2.167  C    
     17 C           4.206    -1.847    -2.566  C    
     18 C           4.038    -1.500    -3.918  C    
     19 C           3.746    -2.497    -4.869  C    
     20 C           3.618    -3.852    -4.483  C    
     21 C           3.232    -4.859    -5.507  C    
     22 S           7.894    -6.991    -5.059  S    
     23 C           7.619    -8.213    -6.203  C    
     24 O           8.498    -8.465    -7.015  O    
     25 H           5.255   -12.584    -7.260  H    
     26 H           6.888   -13.186    -7.603  H    
     27 H           6.067   -12.157    -8.786  H    
     28 H           7.003   -11.347    -5.985  H    
     29 H           7.801   -10.904    -7.495  H    
     30 H           4.942   -10.115    -6.809  H    
     31 H           6.780    -8.975    -8.957  H    
     32 H           5.209    -8.297    -8.483  H    
     33 H           5.295    -9.913    -9.188  H    
     34 H           6.377    -5.639    -3.295  H    
     35 H           4.541    -8.583    -2.230  H    
     36 H           2.278    -7.926    -1.142  H    
     37 H           1.877    -5.422    -1.632  H    
     38 H           4.216    -3.431    -1.179  H    
     39 H           4.414    -1.122    -1.874  H    
     40 H           4.123    -0.524    -4.209  H    
     41 H           3.616    -2.215    -5.846  H    
     42 H           4.025    -5.598    -5.622  H    
     43 H           3.053    -4.405    -6.485  H    
     44 H           2.312    -5.367    -5.201  H    
@<TRIPOS>BOND
     1    1    2 1
     2    2    3 1
     3    3    4 1
     4    3    5 1
     5    5   23 1
     6    5    6 1
     7    6    7 2
     8    6    8 1
     9    8    9 2
    10    8   22 1
    11    9   10 1
    12   10   14 1
    13   10   11 2
    14   11   12 1
    15   12   13 2
    16   13   14 1
    17   14   15 1
    18   15   20 ar
    19   15   16 ar
    20   16   17 ar
    21   17   18 ar
    22   18   19 ar
    23   19   20 ar
    24   20   21 1
    25   22   23 1
    26   23   24 2
    27    1   25 1
    28    1   26 1
    29    1   27 1
    30    2   28 1
    31    2   29 1
    32    3   30 1
    33    4   31 1
    34    4   32 1
    35    4   33 1
    36    9   34 1
    37   11   35 1
    38   12   36 1
    39   13   37 1
    40   16   38 1
    41   17   39 1
    42   18   40 1
    43   19   41 1
    44   21   42 1
    45   21   43 1
    46   21   44 1
@<TRIPOS>MOLECULE
ZINC00988575
 39 40 0 0 0
SMALL
NO_CHARGES


@<TRIPOS>ATOM
      1 C          -0.992    -4.659    -1.980  C    
      2 C           0.328    -4.031    -1.943  C    
      3 C           0.604    -2.741    -2.275  C    
      4 C           2.013    -2.271    -2.265  C    
      5 C           2.999    -3.272    -1.794  C    
      6 C           2.548    -4.481    -1.384  C    
      7 N           1.301    -4.821    -1.562  N    
      8 S           3.527    -5.696    -0.661  S    
      9 C           3.927    -6.586    -2.182  C    
     10 C           4.144    -2.839    -1.407  C    
     11 N           5.154    -2.438    -1.028  N    
     12 C           2.426    -1.790    -3.626  C    
     13 C           2.449    -2.673    -4.736  C    
     14 C           2.813    -2.218    -6.017  C    
     15 C           3.168    -0.863    -6.230  C    
     16 C           3.165     0.012    -5.122  C    
     17 C           2.799    -0.441    -3.840  C    
     18 O           3.486    -0.286    -7.440  O    
     19 C           3.862    -1.105    -8.560  C    
     20 C          -0.372    -1.835    -2.549  C    
     21 O          -0.663    -1.569    -3.707  O    
     22 N          -1.012    -1.209    -1.579  N    
     23 H          -0.963    -5.533    -2.642  H    
     24 H          -1.780    -4.001    -2.348  H    
     25 H          -1.273    -4.985    -0.975  H    
     26 H           2.036    -1.439    -1.542  H    
     27 H           1.071    -5.705    -1.355  H    
     28 H           3.014    -6.984    -2.632  H    
     29 H           4.593    -7.413    -1.934  H    
     30 H           4.431    -5.921    -2.888  H    
     31 H           2.191    -3.657    -4.620  H    
     32 H           2.789    -2.877    -6.793  H    
     33 H           3.405     0.998    -5.246  H    
     34 H           2.798     0.227    -3.063  H    
     35 H           4.668    -1.793    -8.288  H    
     36 H           4.214    -0.457    -9.356  H    
     37 H           2.997    -1.656    -8.933  H    
     38 H          -1.691    -0.551    -1.786  H    
     39 H          -0.799    -1.409    -0.650  H    
@<TRIPOS>BOND
     1    1    2 1
     2    2    7 1
     3    2    3 2
     4    3    4 1
     5    3   20 1
     6    4    5 1
     7    4   12 1
     8    5    6 2
     9    5   10 1
    10    6    7 1
    11    6    8 1
    12    8    9 1
    13   10   11 3
    14   12   17 ar
    15   12   13 ar
    16   13   14 ar
    17   14   15 ar
    18   15   16 ar
    19   15   18 1
    20   16   17 ar
    21   18   19 1
    22   20   21 2
    23   20   22 1
    24    1   23 1
    25    1   24 1
    26    1   25 1
    27    4   26 1
    28    7   27 1
    29    9   28 1
    30    9   29 1
    31    9   30 1
    32   13   31 1
    33   14   32 1
    34   16   33 1
    35   17   34 1
    36   19   35 1
    37   19   36 1
    38   19   37 1
    39   22   38 1
    40   22   39 1
@<TRIPOS>MOLECULE
ZINC01000602
 44 46 0 0 0
SMALL
NO_CHARGES


@<TRIPOS>ATOM
      1 C           1.644    -6.837    -3.354  C    
      2 C           0.520    -7.683    -3.355  C    
      3 C          -0.773    -7.131    -3.421  C    
      4 C          -0.937    -5.733    -3.479  C    
      5 C           0.190    -4.890    -3.479  C    
      6 C           1.499    -5.426    -3.415  C    
      7 N           2.601    -4.595    -3.423  N    
      8 C           3.650    -4.719    -4.218  C    
      9 O           3.783    -5.558    -5.096  O    
     10 C           4.651    -3.718    -3.981  C    
     11 C           4.003    -2.834    -2.890  C    
     12 C           2.776    -3.549    -2.633  C    
     13 O           2.032    -3.239    -1.710  O    
     14 C           3.312    -0.432    -2.437  C    
     15 C           3.276     0.990    -3.076  C    
     16 C           2.306     1.064    -4.300  C    
     17 C           2.227     2.494    -4.905  C    
     18 C           1.850     3.551    -3.831  C    
     19 C           2.820     3.495    -2.620  C    
     20 C           2.891     2.069    -2.012  C    
     21 Br         -2.259    -8.250    -3.424  Br   
     22 N           3.800    -1.452    -3.395  N    
     23 H           2.575    -7.256    -3.289  H    
     24 H           0.644    -8.698    -3.308  H    
     25 H          -1.874    -5.329    -3.532  H    
     26 H           0.052    -3.876    -3.544  H    
     27 H           5.572    -4.183    -3.617  H    
     28 H           4.863    -3.162    -4.901  H    
     29 H           4.634    -2.830    -1.994  H    
     30 H           3.977    -0.418    -1.569  H    
     31 H           2.307    -0.696    -2.101  H    
     32 H           4.288     1.216    -3.430  H    
     33 H           2.655     0.385    -5.084  H    
     34 H           1.302     0.749    -3.998  H    
     35 H           3.194     2.754    -5.347  H    
     36 H           1.476     2.511    -5.703  H    
     37 H           1.887     4.552    -4.275  H    
     38 H           0.827     3.369    -3.484  H    
     39 H           3.820     3.800    -2.942  H    
     40 H           2.478     4.201    -1.856  H    
     41 H           1.919     1.828    -1.573  H    
     42 H           3.636     2.072    -1.209  H    
     43 H           4.699    -1.124    -3.754  H    
     44 H           3.146    -1.499    -4.178  H    
@<TRIPOS>BOND
     1    1    6 ar
     2    1    2 ar
     3    2    3 ar
     4    3    4 ar
     5    3   21 1
     6    4    5 ar
     7    5    6 ar
     8    6    7 1
     9    7   12 1
    10    7    8 1
    11    8    9 2
    12    8   10 1
    13   10   11 1
    14   11   12 1
    15   11   22 1
    16   12   13 2
    17   14   15 1
    18   14   22 1
    19   15   20 1
    20   15   16 1
    21   16   17 1
    22   17   18 1
    23   18   19 1
    24   19   20 1
    25    1   23 1
    26    2   24 1
    27    4   25 1
    28    5   26 1
    29   10   27 1
    30   10   28 1
    31   11   29 1
    32   14   30 1
    33   14   31 1
    34   15   32 1
    35   16   33 1
    36   16   34 1
    37   17   35 1
    38   17   36 1
    39   18   37 1
    40   18   38 1
    41   19   39 1
    42   19   40 1
    43   20   41 1
    44   20   42 1
    45   22   43 1
    46   22   44 1
@<TRIPOS>MOLECULE
ZINC01007239
 24 25 0 0 0
SMALL
NO_CHARGES


@<TRIPOS>ATOM
      1 C           1.126     1.581    -1.948  C    
      2 C           1.870     1.089    -3.115  C    
      3 C           2.584     1.840    -4.054  C    
      4 C           3.196     1.082    -5.067  C    
      5 C           2.994    -0.303    -4.976  C    
      6 S           2.019    -0.562    -3.580  S    
      7 C           3.461    -1.293    -5.810  C    
      8 N           4.185    -1.016    -6.832  N    
      9 N           4.641    -1.883    -7.631  N    
     10 C           5.399    -1.595    -8.705  C    
     11 N           5.776    -0.365    -9.079  N    
     12 C           6.514    -0.333   -10.160  C    
     13 O           6.929     0.719   -10.618  O    
     14 C           6.793    -1.610   -10.760  C    
     15 S           5.975    -2.855    -9.739  S    
     16 H           0.079     1.291    -2.034  H    
     17 H           1.186     2.668    -1.876  H    
     18 H           1.545     1.145    -1.039  H    
     19 H           2.657     2.859    -4.010  H    
     20 H           3.745     1.517    -5.809  H    
     21 H           3.227    -2.238    -5.605  H    
     22 H           5.524     0.434    -8.589  H    
     23 H           6.396    -1.650   -11.776  H    
     24 H           7.868    -1.797   -10.777  H    
@<TRIPOS>BOND
     1    1    2 1
     2    2    6 1
     3    2    3 2
     4    3    4 1
     5    4    5 2
     6    5    6 1
     7    5    7 1
     8    7    8 2
     9    8    9 1
    10    9   10 2
    11   10   15 1
    12   10   11 1
    13   11   12 1
    14   12   13 2
    15   12   14 1
    16   14   15 1
    17    1   16 1
    18    1   17 1
    19    1   18 1
    20    3   19 1
    21    4   20 1
    22    7   21 1
    23   11   22 1
    24   14   23 1
    25   14   24 1
@<TRIPOS>MOLECULE
ZINC01008079
 51 53 0 0 0
SMALL
NO_CHARGES


@<TRIPOS>ATOM
      1 C           1.586   -11.415    -3.510  C    
      2 C           1.722    -9.971    -3.814  C    
      3 C           1.519    -8.984    -2.824  C    
      4 C           1.630    -7.618    -3.143  C    
      5 C           1.967    -7.209    -4.455  C    
      6 C           2.180    -8.199    -5.442  C    
      7 C           2.053    -9.565    -5.128  C    
      8 N           2.094    -5.878    -4.761  N    
      9 C           1.308    -5.201    -5.637  C    
     10 C           1.749    -3.882    -5.679  C    
     11 C           2.832    -3.764    -4.816  C    
     12 C           3.018    -5.028    -4.241  C    
     13 C           4.096    -5.399    -3.292  C    
     14 C           3.511    -2.593    -4.521  C    
     15 C           4.033    -1.710    -5.405  C    
     16 C           4.529    -0.471    -5.130  C    
     17 C           4.820     0.125    -6.305  C    
     18 N           4.565    -0.738    -7.290  N    
     19 C           4.107    -1.849    -6.743  C    
     20 O           3.921    -2.888    -7.367  O    
     21 C           4.770    -0.526    -8.704  C    
     22 C           5.393     1.456    -6.471  C    
     23 C           4.744     0.092    -3.871  C    
     24 O           4.569     1.422    -3.667  O    
     25 O           5.178    -0.677    -2.837  O    
     26 C           5.450    -0.240    -1.503  C    
     27 C           0.149    -5.714    -6.401  C    
     28 H           0.785   -11.846    -4.111  H    
     29 H           1.364   -11.598    -2.458  H    
     30 H           2.522   -11.930    -3.751  H    
     31 H           1.284    -9.252    -1.865  H    
     32 H           1.458    -6.920    -2.418  H    
     33 H           2.443    -7.928    -6.392  H    
     34 H           2.216   -10.260    -5.858  H    
     35 H           1.328    -3.126    -6.223  H    
     36 H           3.662    -5.676    -2.330  H    
     37 H           4.797    -4.580    -3.125  H    
     38 H           4.653    -6.247    -3.690  H    
     39 H           3.601    -2.403    -3.555  H    
     40 H           4.198     0.347    -9.035  H    
     41 H           4.456    -1.377    -9.312  H    
     42 H           5.829    -0.351    -8.901  H    
     43 H           4.679     2.211    -6.141  H    
     44 H           5.651     1.674    -7.506  H    
     45 H           6.307     1.543    -5.880  H    
     46 H           6.225     0.530    -1.508  H    
     47 H           5.795    -1.093    -0.917  H    
     48 H           4.541     0.162    -1.043  H    
     49 H           0.472    -6.498    -7.081  H    
     50 H          -0.328    -4.928    -6.986  H    
     51 H          -0.588    -6.123    -5.708  H    
@<TRIPOS>BOND
     1    1    2 1
     2    2    7 ar
     3    2    3 ar
     4    3    4 ar
     5    4    5 ar
     6    5    6 ar
     7    5    8 1
     8    6    7 ar
     9    8   12 1
    10    8    9 1
    11    9   10 2
    12    9   27 1
    13   10   11 1
    14   11   12 2
    15   11   14 1
    16   12   13 1
    17   14   15 2
    18   15   19 1
    19   15   16 1
    20   16   17 2
    21   16   23 1
    22   17   18 1
    23   17   22 1
    24   18   19 1
    25   18   21 1
    26   19   20 2
    27   23   24 2
    28   23   25 1
    29   25   26 1
    30    1   28 1
    31    1   29 1
    32    1   30 1
    33    3   31 1
    34    4   32 1
    35    6   33 1
    36    7   34 1
    37   10   35 1
    38   13   36 1
    39   13   37 1
    40   13   38 1
    41   14   39 1
    42   21   40 1
    43   21   41 1
    44   21   42 1
    45   22   43 1
    46   22   44 1
    47   22   45 1
    48   26   46 1
    49   26   47 1
    50   26   48 1
    51   27   49 1
    52   27   50 1
    53   27   51 1
@<TRIPOS>MOLECULE
ZINC01021406
 37 40 0 0 0
SMALL
NO_CHARGES


@<TRIPOS>ATOM
      1 C           8.281     2.067    -5.472  C    
      2 C           7.833     2.985    -4.501  C    
      3 C           6.517     2.905    -4.013  C    
      4 C           5.638     1.921    -4.504  C    
      5 C           6.092     0.986    -5.472  C    
      6 C           7.413     1.071    -5.955  C    
      7 O           5.242     0.044    -6.012  O    
      8 C           4.043    -0.229    -5.255  C    
      9 C           3.396     1.097    -4.757  C    
     10 O           4.367     1.846    -3.982  O    
     11 C           2.186     0.849    -3.992  C    
     12 O           1.179     0.477    -4.596  O    
     13 N           2.194     0.938    -2.669  N    
     14 N           1.170     0.744    -1.947  N    
     15 C           1.108     0.723    -0.665  C    
     16 C          -0.056     0.529     0.023  C    
     17 C          -1.393     0.364    -0.393  C    
     18 C          -2.391     0.174     0.586  C    
     19 C          -2.048     0.141     1.955  C    
     20 C          -0.706     0.306     2.364  C    
     21 C           0.273     0.507     1.377  C    
     22 N           1.596     0.699     1.468  N    
     23 C           2.093     0.833     0.257  C    
     24 O           3.287     0.997     0.046  O    
     25 Br         -0.249     0.257     4.168  Br   
     26 H           9.237     2.129    -5.826  H    
     27 H           8.463     3.711    -4.151  H    
     28 H           6.197     3.569    -3.302  H    
     29 H           7.741     0.415    -6.668  H    
     30 H           3.352    -0.774    -5.903  H    
     31 H           4.295    -0.868    -4.403  H    
     32 H           3.132     1.709    -5.626  H    
     33 H           3.031     1.167    -2.229  H    
     34 H          -1.638     0.383    -1.384  H    
     35 H          -3.366     0.056     0.302  H    
     36 H          -2.778    -0.005     2.657  H    
     37 H           2.107     0.726     2.297  H    
@<TRIPOS>BOND
     1    1    6 ar
     2    1    2 ar
     3    2    3 ar
     4    3    4 ar
     5    4   10 1
     6    4    5 ar
     7    5    6 ar
     8    5    7 1
     9    7    8 1
    10    8    9 1
    11    9   10 1
    12    9   11 1
    13   11   12 2
    14   11   13 1
    15   13   14 1
    16   14   15 2
    17   15   23 1
    18   15   16 1
    19   16   21 ar
    20   16   17 ar
    21   17   18 ar
    22   18   19 ar
    23   19   20 ar
    24   20   21 ar
    25   20   25 1
    26   21   22 1
    27   22   23 1
    28   23   24 2
    29    1   26 1
    30    2   27 1
    31    3   28 1
    32    6   29 1
    33    8   30 1
    34    8   31 1
    35    9   32 1
    36   13   33 1
    37   17   34 1
    38   18   35 1
    39   19   36 1
    40   22   37 1
@<TRIPOS>MOLECULE
ZINC01021960
 30 30 0 0 0
SMALL
NO_CHARGES


@<TRIPOS>ATOM
      1 C          -2.092    -6.740    -3.299  C    
      2 S          -0.924    -6.248    -2.025  S    
      3 O           0.221    -7.351    -1.993  O    
      4 O          -1.707    -6.202    -0.640  O    
      5 N          -0.246    -4.746    -2.376  N    
      6 C           0.668    -4.112    -1.485  C    
      7 C           1.305    -2.858    -2.144  C    
      8 C           2.408    -0.664    -1.728  C    
      9 C           3.281     0.153    -0.741  C    
     10 O           4.515    -0.531    -0.460  O    
     11 C           4.328    -1.851     0.083  C    
     12 C           3.482    -2.728    -0.875  C    
     13 N           2.181    -2.058    -1.218  N    
     14 H          -1.585    -6.796    -4.266  H    
     15 H          -2.903    -6.009    -3.360  H    
     16 H          -2.511    -7.720    -3.057  H    
     17 H          -0.685    -4.196    -3.052  H    
     18 H           0.128    -3.805    -0.586  H    
     19 H           1.444    -4.827    -1.209  H    
     20 H           1.868    -3.164    -3.032  H    
     21 H           0.474    -2.235    -2.484  H    
     22 H           1.453    -0.147    -1.840  H    
     23 H           2.902    -0.692    -2.705  H    
     24 H           3.519     1.120    -1.189  H    
     25 H           2.728     0.335     0.187  H    
     26 H           5.310    -2.307     0.215  H    
     27 H           3.847    -1.790     1.063  H    
     28 H           4.061    -2.922    -1.785  H    
     29 H           3.302    -3.682    -0.375  H    
     30 H           1.662    -1.961    -0.341  H    
@<TRIPOS>BOND
     1    1    2 1
     2    2    3 2
     3    2    4 2
     4    2    5 1
     5    5    6 1
     6    6    7 1
     7    7   13 1
     8    8    9 1
     9    8   13 1
    10    9   10 1
    11   10   11 1
    12   11   12 1
    13   12   13 1
    14    1   14 1
    15    1   15 1
    16    1   16 1
    17    5   17 1
    18    6   18 1
    19    6   19 1
    20    7   20 1
    21    7   21 1
    22    8   22 1
    23    8   23 1
    24    9   24 1
    25    9   25 1
    26   11   26 1
    27   11   27 1
    28   12   28 1
    29   12   29 1
    30   13   30 1
@<TRIPOS>MOLECULE
ZINC01041982
 25 26 0 0 0
SMALL
NO_CHARGES


@<TRIPOS>ATOM
      1 C          -1.318    -7.318    -3.723  C    
      2 C          -1.688    -6.403    -2.718  C    
      3 C          -0.742    -5.989    -1.759  C    
      4 C           0.587    -6.482    -1.802  C    
      5 C           0.949    -7.397    -2.826  C    
      6 C          -0.002    -7.816    -3.778  C    
      7 C           1.600    -6.033    -0.809  C    
      8 C           2.428    -4.946    -1.358  C    
      9 N           2.002    -3.711    -1.643  N    
     10 C           3.049    -3.033    -2.121  C    
     11 N           4.112    -3.858    -2.121  N    
     12 N           3.737    -5.013    -1.659  N    
     13 C           3.035    -1.631    -2.562  C    
     14 O           2.093    -1.460    -3.615  O    
     15 H          -2.006    -7.619    -4.420  H    
     16 H          -2.645    -6.038    -2.685  H    
     17 H          -1.029    -5.323    -1.035  H    
     18 H           1.904    -7.766    -2.879  H    
     19 H           0.264    -8.482    -4.508  H    
     20 H           1.119    -5.674     0.104  H    
     21 H           2.236    -6.877    -0.529  H    
     22 H           1.100    -3.370    -1.526  H    
     23 H           2.745    -0.989    -1.725  H    
     24 H           4.021    -1.326    -2.917  H    
     25 H           2.403    -2.052    -4.338  H    
@<TRIPOS>BOND
     1    1    6 ar
     2    1    2 ar
     3    2    3 ar
     4    3    4 ar
     5    4    5 ar
     6    4    7 1
     7    5    6 ar
     8    7    8 1
     9    8   12 2
    10    8    9 1
    11    9   10 1
    12   10   11 2
    13   10   13 1
    14   11   12 1
    15   13   14 1
    16    1   15 1
    17    2   16 1
    18    3   17 1
    19    5   18 1
    20    6   19 1
    21    7   20 1
    22    7   21 1
    23    9   22 1
    24   13   23 1
    25   13   24 1
    26   14   25 1
@<TRIPOS>MOLECULE
ZINC01044334
 51 53 0 0 0
SMALL
NO_CHARGES


@<TRIPOS>ATOM
      1 C           1.148    -6.458    -6.294  C    
      2 C           1.709    -5.438    -5.254  C    
      3 C           2.116    -4.073    -5.920  C    
      4 C           2.423    -3.327    -3.506  C    
      5 C           1.138    -4.143    -3.122  C    
      6 C           0.812    -5.165    -4.125  C    
      7 O          -0.278    -5.724    -4.040  O    
      8 C           1.259    -4.779    -1.706  C    
      9 C           2.608    -2.077    -2.703  C    
     10 C           1.688    -1.005    -2.799  C    
     11 C           1.865     0.170    -2.047  C    
     12 C           2.961     0.295    -1.171  C    
     13 C           3.892    -0.758    -1.076  C    
     14 C           3.715    -1.930    -1.832  C    
     15 O           3.152     1.452    -0.468  O    
     16 C           2.538     1.435     0.832  C    
     17 C           3.257    -4.200    -6.880  C    
     18 C           4.552    -4.547    -6.426  C    
     19 C           5.624    -4.673    -7.327  C    
     20 C           5.427    -4.434    -8.702  C    
     21 C           4.143    -4.099    -9.169  C    
     22 C           3.071    -3.978    -8.267  C    
     23 O           6.454    -4.592    -9.591  O    
     24 C           7.280    -3.422    -9.726  C    
     25 N           2.418    -2.977    -4.951  N    
     26 H           0.900    -7.404    -5.806  H    
     27 H           1.890    -6.666    -7.066  H    
     28 H           0.247    -6.064    -6.771  H    
     29 H           2.603    -5.901    -4.822  H    
     30 H           1.231    -3.720    -6.461  H    
     31 H           3.289    -3.981    -3.355  H    
     32 H           0.290    -3.449    -3.101  H    
     33 H           2.075    -5.504    -1.677  H    
     34 H           0.333    -5.288    -1.431  H    
     35 H           1.451    -4.010    -0.957  H    
     36 H           0.884    -1.069    -3.426  H    
     37 H           1.195     0.936    -2.139  H    
     38 H           4.702    -0.671    -0.456  H    
     39 H           4.405    -2.679    -1.738  H    
     40 H           1.456     1.297     0.763  H    
     41 H           2.727     2.397     1.311  H    
     42 H           2.969     0.652     1.460  H    
     43 H           4.725    -4.715    -5.432  H    
     44 H           6.548    -4.937    -6.980  H    
     45 H           3.986    -3.943   -10.168  H    
     46 H           2.149    -3.733    -8.634  H    
     47 H           6.699    -2.566   -10.082  H    
     48 H           8.056    -3.639   -10.460  H    
     49 H           7.769    -3.167    -8.783  H    
     50 H           3.329    -2.577    -5.179  H    
     51 H           1.719    -2.246    -5.092  H    
@<TRIPOS>BOND
     1    1    2 1
     2    2    6 1
     3    2    3 1
     4    3   17 1
     5    3   25 1
     6    4    5 1
     7    4    9 1
     8    4   25 1
     9    5    6 1
    10    5    8 1
    11    6    7 2
    12    9   14 ar
    13    9   10 ar
    14   10   11 ar
    15   11   12 ar
    16   12   13 ar
    17   12   15 1
    18   13   14 ar
    19   15   16 1
    20   17   22 ar
    21   17   18 ar
    22   18   19 ar
    23   19   20 ar
    24   20   21 ar
    25   20   23 1
    26   21   22 ar
    27   23   24 1
    28    1   26 1
    29    1   27 1
    30    1   28 1
    31    2   29 1
    32    3   30 1
    33    4   31 1
    34    5   32 1
    35    8   33 1
    36    8   34 1
    37    8   35 1
    38   10   36 1
    39   11   37 1
    40   13   38 1
    41   14   39 1
    42   16   40 1
    43   16   41 1
    44   16   42 1
    45   18   43 1
    46   19   44 1
    47   21   45 1
    48   22   46 1
    49   24   47 1
    50   24   48 1
    51   24   49 1
    52   25   50 1
    53   25   51 1
@<TRIPOS>MOLECULE
ZINC01047053
 37 39 0 0 0
SMALL
NO_CHARGES


@<TRIPOS>ATOM
      1 C           6.633   -14.582    -2.930  C    
      2 O           5.560   -13.941    -3.649  O    
      3 C           5.813   -12.627    -3.933  C    
      4 C           6.460   -12.281    -5.137  C    
      5 C           6.711   -10.932    -5.448  C    
      6 C           6.305    -9.901    -4.569  C    
      7 C           5.636   -10.257    -3.374  C    
      8 C           5.370   -11.607    -3.061  C    
      9 O           4.733   -11.921    -1.890  O    
     10 C           3.298   -11.982    -2.014  C    
     11 C           6.560    -8.546    -4.888  C    
     12 N           6.064    -7.471    -4.257  N    
     13 C           6.553    -6.393    -4.889  C    
     14 N           7.343    -6.810    -5.894  N    
     15 O           7.349    -8.111    -5.899  O    
     16 C           6.280    -5.045    -4.577  C    
     17 C           5.354    -4.668    -3.577  C    
     18 C           5.108    -3.301    -3.337  C    
     19 C           5.779    -2.301    -4.081  C    
     20 C           6.706    -2.738    -5.059  C    
     21 N           6.915    -4.062    -5.270  N    
     22 C           5.541    -0.846    -3.880  C    
     23 F           6.709    -0.224    -3.502  F    
     24 F           5.107    -0.279    -5.051  F    
     25 F           4.596    -0.552    -2.923  F    
     26 H           7.561   -14.582    -3.509  H    
     27 H           6.352   -15.616    -2.751  H    
     28 H           6.809   -14.101    -1.964  H    
     29 H           6.759   -13.012    -5.788  H    
     30 H           7.183   -10.712    -6.330  H    
     31 H           5.332    -9.532    -2.716  H    
     32 H           2.880   -11.039    -2.379  H    
     33 H           2.882   -12.181    -1.026  H    
     34 H           2.996   -12.793    -2.681  H    
     35 H           4.850    -5.371    -3.029  H    
     36 H           4.430    -3.047    -2.612  H    
     37 H           7.227    -2.063    -5.624  H    
@<TRIPOS>BOND
     1    1    2 1
     2    2    3 1
     3    3    8 ar
     4    3    4 ar
     5    4    5 ar
     6    5    6 ar
     7    6    7 ar
     8    6   11 1
     9    7    8 ar
    10    8    9 1
    11    9   10 1
    12   11   15 1
    13   11   12 2
    14   12   13 1
    15   13   14 2
    16   13   16 1
    17   14   15 1
    18   16   21 ar
    19   16   17 ar
    20   17   18 ar
    21   18   19 ar
    22   19   20 ar
    23   19   22 1
    24   20   21 ar
    25   22   23 1
    26   22   24 1
    27   22   25 1
    28    1   26 1
    29    1   27 1
    30    1   28 1
    31    4   29 1
    32    5   30 1
    33    7   31 1
    34   10   32 1
    35   10   33 1
    36   10   34 1
    37   17   35 1
    38   18   36 1
    39   20   37 1
@<TRIPOS>MOLECULE
ZINC01058869
 42 44 0 0 0
SMALL
NO_CHARGES


@<TRIPOS>ATOM
      1 C          -0.495    -1.165    -3.042  C    
      2 O           0.729    -1.690    -2.497  O    
      3 C           1.548    -2.492    -3.263  C    
      4 C           1.082    -3.322    -4.306  C    
      5 C           1.954    -4.190    -4.985  C    
      6 C           3.318    -4.279    -4.605  C    
      7 C           3.801    -3.432    -3.571  C    
      8 C           2.922    -2.533    -2.915  C    
      9 O           3.408    -1.780    -1.873  O    
     10 C           3.517    -0.370    -2.145  C    
     11 O           5.088    -3.584    -3.107  O    
     12 C           6.060    -2.690    -3.682  C    
     13 C           4.168    -5.336    -5.249  C    
     14 C           3.598    -5.859    -6.617  C    
     15 C           2.151    -5.794    -6.724  C    
     16 O           1.576    -6.402    -7.613  O    
     17 N           1.435    -4.979    -5.968  N    
     18 C           4.426    -6.461    -4.281  C    
     19 C           3.320    -7.188    -3.763  C    
     20 C           3.494    -8.233    -2.839  C    
     21 C           4.786    -8.587    -2.419  C    
     22 C           5.899    -7.892    -2.920  C    
     23 C           5.732    -6.841    -3.846  C    
     24 Cl          7.161    -6.095    -4.388  Cl   
     25 H          -0.336    -0.719    -4.028  H    
     26 H          -0.874    -0.394    -2.370  H    
     27 H          -1.247    -1.958    -3.114  H    
     28 H           0.095    -3.307    -4.563  H    
     29 H           4.026    -0.172    -3.093  H    
     30 H           4.102     0.084    -1.343  H    
     31 H           2.539     0.110    -2.160  H    
     32 H           6.035    -2.706    -4.771  H    
     33 H           7.050    -3.014    -3.358  H    
     34 H           5.912    -1.669    -3.331  H    
     35 H           5.106    -4.851    -5.511  H    
     36 H           3.998    -5.240    -7.427  H    
     37 H           3.935    -6.882    -6.800  H    
     38 H           0.484    -4.922    -6.137  H    
     39 H           2.366    -6.961    -4.045  H    
     40 H           2.686    -8.739    -2.471  H    
     41 H           4.920    -9.345    -1.746  H    
     42 H           6.833    -8.155    -2.602  H    
@<TRIPOS>BOND
     1    1    2 1
     2    2    3 1
     3    3    8 ar
     4    3    4 ar
     5    4    5 ar
     6    5   17 1
     7    5    6 ar
     8    6    7 ar
     9    6   13 1
    10    7    8 ar
    11    7   11 1
    12    8    9 1
    13    9   10 1
    14   11   12 1
    15   13   14 1
    16   13   18 1
    17   14   15 1
    18   15   16 2
    19   15   17 1
    20   18   23 ar
    21   18   19 ar
    22   19   20 ar
    23   20   21 ar
    24   21   22 ar
    25   22   23 ar
    26   23   24 1
    27    1   25 1
    28    1   26 1
    29    1   27 1
    30    4   28 1
    31   10   29 1
    32   10   30 1
    33   10   31 1
    34   12   32 1
    35   12   33 1
    36   12   34 1
    37   13   35 1
    38   14   36 1
    39   14   37 1
    40   17   38 1
    41   19   39 1
    42   20   40 1
    43   21   41 1
    44   22   42 1
@<TRIPOS>MOLECULE
ZINC01070880
 35 36 0 0 0
SMALL
NO_CHARGES


@<TRIPOS>ATOM
      1 C          -1.186    -7.191    -1.049  C    
      2 C          -0.066    -6.283    -1.326  C    
      3 C           0.988    -6.468    -2.197  C    
      4 C           1.799    -5.343    -2.090  C    
      5 N           1.205    -4.492    -1.199  N    
      6 N           0.122    -5.086    -0.760  N    
      7 C           1.474    -3.249    -0.757  C    
      8 O           0.759    -2.804     0.139  O    
      9 C           2.462    -2.277    -1.255  C    
     10 C           3.800    -2.441    -0.475  C    
     11 N           2.555    -2.166    -2.695  N    
     12 C           1.550    -1.942    -3.581  C    
     13 C           2.131    -1.828    -4.842  C    
     14 C           3.501    -1.962    -4.653  C    
     15 N           3.688    -2.146    -3.335  N    
     16 N           4.501    -1.913    -5.564  N    
     17 O           5.648    -2.027    -5.222  O    
     18 O           4.280    -1.727    -6.832  O    
     19 Br          1.246    -1.524    -6.455  Br   
     20 C           0.108    -1.803    -3.281  C    
     21 C           3.066    -5.312    -2.848  C    
     22 H          -1.185    -7.460     0.008  H    
     23 H          -1.107    -8.102    -1.644  H    
     24 H          -2.126    -6.694    -1.289  H    
     25 H           1.152    -7.295    -2.776  H    
     26 H           2.123    -1.273    -0.966  H    
     27 H           3.636    -2.284     0.594  H    
     28 H           4.529    -1.701    -0.811  H    
     29 H           4.230    -3.433    -0.603  H    
     30 H          -0.288    -2.752    -2.921  H    
     31 H          -0.464    -1.511    -4.162  H    
     32 H          -0.035    -1.040    -2.515  H    
     33 H           3.587    -6.267    -2.743  H    
     34 H           3.740    -4.549    -2.488  H    
     35 H           2.856    -5.140    -3.906  H    
@<TRIPOS>BOND
     1    1    2 1
     2    2    6 2
     3    2    3 1
     4    3    4 2
     5    4    5 1
     6    4   21 1
     7    5    6 1
     8    5    7 1
     9    7    8 2
    10    7    9 1
    11    9   10 1
    12    9   11 1
    13   11   15 1
    14   11   12 1
    15   12   13 2
    16   12   20 1
    17   13   14 1
    18   13   19 1
    19   14   15 2
    20   14   16 1
    21   16   17 2
    22   16   18 1
    23    1   22 1
    24    1   23 1
    25    1   24 1
    26    3   25 1
    27    9   26 1
    28   10   27 1
    29   10   28 1
    30   10   29 1
    31   20   30 1
    32   20   31 1
    33   20   32 1
    34   21   33 1
    35   21   34 1
    36   21   35 1
@<TRIPOS>MOLECULE
ZINC01079260
 40 42 0 0 0
SMALL
NO_CHARGES


@<TRIPOS>ATOM
      1 C           6.324    -3.475    -7.403  C    
      2 C           6.882    -4.417    -8.288  C    
      3 C           7.661    -5.480    -7.792  C    
      4 C           7.887    -5.589    -6.401  C    
      5 C           7.332    -4.635    -5.522  C    
      6 C           6.527    -3.572    -6.008  C    
      7 N           5.939    -2.587    -5.246  N    
      8 C           5.738    -2.483    -3.935  C    
      9 O           6.037    -3.385    -3.169  O    
     10 C           5.083    -1.277    -3.423  C    
     11 C           4.695    -1.303    -1.909  C    
     12 C           4.336     0.029    -1.451  C    
     13 O           3.691     0.177    -0.422  O    
     14 N           4.878     1.096    -2.015  N    
     15 C           5.683     1.088    -3.116  C    
     16 N           5.878    -0.116    -3.722  N    
     17 N           6.270     2.249    -3.564  N    
     18 C           6.100     3.524    -2.883  C    
     19 C           5.551     4.578    -3.878  C    
     20 O           6.381     4.646    -5.055  O    
     21 C           6.549     3.383    -5.727  C    
     22 C           7.104     2.307    -4.757  C    
     23 Cl          8.827    -6.852    -5.772  Cl   
     24 F           8.167    -6.344    -8.634  F    
     25 H           5.757    -2.709    -7.794  H    
     26 H           6.717    -4.325    -9.293  H    
     27 H           7.536    -4.715    -4.523  H    
     28 H           5.581    -1.845    -5.762  H    
     29 H           4.148    -1.150    -3.983  H    
     30 H           3.861    -1.998    -1.759  H    
     31 H           5.537    -1.642    -1.301  H    
     32 H           6.472    -0.169    -4.487  H    
     33 H           5.427     3.495    -2.021  H    
     34 H           7.074     3.859    -2.516  H    
     35 H           4.522     4.334    -4.158  H    
     36 H           5.551     5.560    -3.398  H    
     37 H           5.594     3.054    -6.148  H    
     38 H           7.254     3.523    -6.551  H    
     39 H           8.118     2.589    -4.462  H    
     40 H           7.178     1.370    -5.311  H    
@<TRIPOS>BOND
     1    1    6 ar
     2    1    2 ar
     3    2    3 ar
     4    3    4 ar
     5    3   24 1
     6    4    5 ar
     7    4   23 1
     8    5    6 ar
     9    6    7 1
    10    7    8 1
    11    8    9 2
    12    8   10 1
    13   10   16 1
    14   10   11 1
    15   11   12 1
    16   12   13 2
    17   12   14 1
    18   14   15 2
    19   15   16 1
    20   15   17 1
    21   17   22 1
    22   17   18 1
    23   18   19 1
    24   19   20 1
    25   20   21 1
    26   21   22 1
    27    1   25 1
    28    2   26 1
    29    5   27 1
    30    7   28 1
    31   10   29 1
    32   11   30 1
    33   11   31 1
    34   16   32 1
    35   18   33 1
    36   18   34 1
    37   19   35 1
    38   19   36 1
    39   21   37 1
    40   21   38 1
    41   22   39 1
    42   22   40 1
@<TRIPOS>MOLECULE
ZINC01111888
 32 34 0 0 0
SMALL
NO_CHARGES


@<TRIPOS>ATOM
      1 C          -0.495    -9.788    -3.876  C    
      2 O           0.497    -8.751    -3.963  O    
      3 C           0.423    -7.644    -3.145  C    
      4 C          -0.314    -7.557    -1.941  C    
      5 C          -0.292    -6.382    -1.175  C    
      6 C           0.474    -5.280    -1.593  C    
      7 C           1.240    -5.329    -2.787  C    
      8 C           1.194    -6.532    -3.542  C    
      9 C           2.031    -4.245    -3.200  C    
     10 O           2.935    -4.442    -4.005  O    
     11 N           1.811    -3.015    -2.740  N    
     12 C           2.485    -1.870    -3.005  C    
     13 N           2.107    -0.690    -2.466  N    
     14 C           2.869     0.381    -2.809  C    
     15 C           2.664     1.703    -2.376  C    
     16 C           3.540     2.718    -2.813  C    
     17 C           4.615     2.414    -3.676  C    
     18 C           4.825     1.090    -4.114  C    
     19 C           3.938     0.095    -3.671  C    
     20 S           3.876    -1.588    -3.990  S    
     21 Br          5.768     3.761    -4.239  Br   
     22 H          -0.400   -10.339    -2.936  H    
     23 H          -0.332   -10.486    -4.698  H    
     24 H          -1.505    -9.377    -3.966  H    
     25 H          -0.870    -8.349    -1.614  H    
     26 H          -0.825    -6.333    -0.303  H    
     27 H           0.479    -4.450    -0.995  H    
     28 H           1.724    -6.606    -4.415  H    
     29 H           1.062    -2.916    -2.133  H    
     30 H           1.881     1.927    -1.759  H    
     31 H           3.392     3.681    -2.504  H    
     32 H           5.603     0.858    -4.734  H    
@<TRIPOS>BOND
     1    1    2 1
     2    2    3 1
     3    3    8 ar
     4    3    4 ar
     5    4    5 ar
     6    5    6 ar
     7    6    7 ar
     8    7    8 ar
     9    7    9 1
    10    9   10 2
    11    9   11 1
    12   11   12 1
    13   12   20 1
    14   12   13 2
    15   13   14 1
    16   14   19 ar
    17   14   15 ar
    18   15   16 ar
    19   16   17 ar
    20   17   18 ar
    21   17   21 1
    22   18   19 ar
    23   19   20 1
    24    1   22 1
    25    1   23 1
    26    1   24 1
    27    4   25 1
    28    5   26 1
    29    6   27 1
    30    8   28 1
    31   11   29 1
    32   15   30 1
    33   16   31 1
    34   18   32 1
@<TRIPOS>MOLECULE
ZINC01133805
 56 60 0 0 0
SMALL
NO_CHARGES


@<TRIPOS>ATOM
      1 C           3.837     1.338    -7.889  C    
      2 C           4.193    -0.105    -7.894  C    
      3 C           4.220    -0.813    -6.666  C    
      4 C           4.545    -2.178    -6.627  C    
      5 C           4.863    -2.882    -7.810  C    
      6 C           4.853    -2.173    -9.037  C    
      7 C           4.516    -0.799    -9.100  C    
      8 C           4.504    -0.119   -10.425  C    
      9 N           5.202    -4.227    -7.760  N    
     10 C           6.242    -4.658    -7.005  C    
     11 O           7.027    -3.841    -6.529  O    
     12 C           6.518    -6.013    -6.854  C    
     13 C           7.198    -6.542    -5.807  C    
     14 C           7.564    -5.885    -4.641  C    
     15 C           8.882    -5.786    -4.187  C    
     16 C          10.111    -6.248    -4.705  C    
     17 C          11.299    -5.956    -4.002  C    
     18 C          11.256    -5.215    -2.799  C    
     19 C          10.023    -4.754    -2.289  C    
     20 C           8.849    -5.051    -3.004  C    
     21 N           7.576    -4.740    -2.735  N    
     22 C           6.752    -5.247    -3.677  C    
     23 C           5.360    -5.139    -3.614  C    
     24 O           4.686    -5.544    -4.551  O    
     25 C           4.658    -4.637    -2.513  C    
     26 C           4.982    -5.017    -1.184  C    
     27 C           4.260    -4.512    -0.086  C    
     28 C           3.191    -3.627    -0.296  C    
     29 C           2.837    -3.252    -1.604  C    
     30 C           3.555    -3.764    -2.701  C    
     31 C           5.927    -6.836    -7.795  C    
     32 O           6.241    -8.007    -7.962  O    
     33 N           4.908    -6.396    -8.525  N    
     34 C           4.512    -5.130    -8.485  C    
     35 O           3.535    -4.851    -9.168  O    
     36 H           4.651     1.929    -8.316  H    
     37 H           3.648     1.717    -6.879  H    
     38 H           2.930     1.492    -8.482  H    
     39 H           3.996    -0.337    -5.786  H    
     40 H           4.549    -2.662    -5.725  H    
     41 H           5.102    -2.675    -9.896  H    
     42 H           3.504     0.272   -10.631  H    
     43 H           4.776    -0.793   -11.244  H    
     44 H           5.220     0.708   -10.423  H    
     45 H           7.471    -7.497    -5.846  H    
     46 H          10.143    -6.781    -5.578  H    
     47 H          12.197    -6.286    -4.362  H    
     48 H          12.121    -5.009    -2.297  H    
     49 H           9.983    -4.216    -1.419  H    
     50 H           7.291    -4.243    -1.953  H    
     51 H           5.737    -5.683    -1.002  H    
     52 H           4.511    -4.793     0.865  H    
     53 H           2.669    -3.256     0.500  H    
     54 H           2.058    -2.608    -1.758  H    
     55 H           3.279    -3.470    -3.641  H    
     56 H           4.446    -7.016    -9.113  H    
@<TRIPOS>BOND
     1    1    2 1
     2    2    7 ar
     3    2    3 ar
     4    3    4 ar
     5    4    5 ar
     6    5    6 ar
     7    5    9 1
     8    6    7 ar
     9    7    8 1
    10    9   34 1
    11    9   10 1
    12   10   11 2
    13   10   12 1
    14   12   13 2
    15   12   31 1
    16   13   14 1
    17   14   22 2
    18   14   15 1
    19   15   20 ar
    20   15   16 ar
    21   16   17 ar
    22   17   18 ar
    23   18   19 ar
    24   19   20 ar
    25   20   21 1
    26   21   22 1
    27   22   23 1
    28   23   24 2
    29   23   25 1
    30   25   30 ar
    31   25   26 ar
    32   26   27 ar
    33   27   28 ar
    34   28   29 ar
    35   29   30 ar
    36   31   32 2
    37   31   33 1
    38   33   34 1
    39   34   35 2
    40    1   36 1
    41    1   37 1
    42    1   38 1
    43    3   39 1
    44    4   40 1
    45    6   41 1
    46    8   42 1
    47    8   43 1
    48    8   44 1
    49   13   45 1
    50   16   46 1
    51   17   47 1
    52   18   48 1
    53   19   49 1
    54   21   50 1
    55   26   51 1
    56   27   52 1
    57   28   53 1
    58   29   54 1
    59   30   55 1
    60   33   56 1
@<TRIPOS>MOLECULE
ZINC01138515
 39 41 0 0 0
SMALL
NO_CHARGES


@<TRIPOS>ATOM
      1 C          -0.377    -8.725    -6.398  C    
      2 O           0.213    -8.681    -5.088  O    
      3 C           1.035    -9.738    -4.781  C    
      4 C           0.519   -11.043    -4.599  C    
      5 C           1.373   -12.102    -4.237  C    
      6 C           2.742   -11.864    -4.029  C    
      7 C           3.261   -10.565    -4.181  C    
      8 C           2.412    -9.496    -4.552  C    
      9 N           2.931    -8.230    -4.663  N    
     10 C           3.227    -7.452    -3.636  C    
     11 O           3.088    -7.812    -2.469  O    
     12 C           3.718    -6.238    -3.985  C    
     13 C           3.937    -5.222    -3.116  C    
     14 C           4.501    -3.975    -3.384  C    
     15 C           5.648    -3.817    -4.205  C    
     16 C           6.218    -2.547    -4.420  C    
     17 C           5.656    -1.410    -3.810  C    
     18 C           4.542    -1.557    -2.959  C    
     19 C           3.978    -2.828    -2.739  C    
     20 S           6.366     0.165    -4.049  S    
     21 C           5.586     0.505    -5.643  C    
     22 S           3.841    -6.080    -5.690  S    
     23 C           3.190    -7.642    -5.817  C    
     24 O           3.029    -8.144    -6.922  O    
     25 H           0.356    -8.956    -7.181  H    
     26 H          -0.798    -7.742    -6.605  H    
     27 H          -1.190    -9.459    -6.431  H    
     28 H          -0.474   -11.228    -4.729  H    
     29 H           0.997   -13.045    -4.114  H    
     30 H           3.362   -12.631    -3.758  H    
     31 H           4.257   -10.398    -4.013  H    
     32 H           3.626    -5.355    -2.177  H    
     33 H           6.098    -4.630    -4.632  H    
     34 H           7.051    -2.454    -5.010  H    
     35 H           4.137    -0.742    -2.494  H    
     36 H           3.166    -2.901    -2.118  H    
     37 H           5.907    -0.229    -6.383  H    
     38 H           5.888     1.501    -5.975  H    
     39 H           4.499     0.480    -5.552  H    
@<TRIPOS>BOND
     1    1    2 1
     2    2    3 1
     3    3    8 ar
     4    3    4 ar
     5    4    5 ar
     6    5    6 ar
     7    6    7 ar
     8    7    8 ar
     9    8    9 1
    10    9   23 1
    11    9   10 1
    12   10   11 2
    13   10   12 1
    14   12   13 2
    15   12   22 1
    16   13   14 1
    17   14   19 ar
    18   14   15 ar
    19   15   16 ar
    20   16   17 ar
    21   17   18 ar
    22   17   20 1
    23   18   19 ar
    24   20   21 1
    25   22   23 1
    26   23   24 2
    27    1   25 1
    28    1   26 1
    29    1   27 1
    30    4   28 1
    31    5   29 1
    32    6   30 1
    33    7   31 1
    34   13   32 1
    35   15   33 1
    36   16   34 1
    37   18   35 1
    38   19   36 1
    39   21   37 1
    40   21   38 1
    41   21   39 1
@<TRIPOS>MOLECULE
ZINC01148935
 48 51 0 0 0
SMALL
NO_CHARGES


@<TRIPOS>ATOM
      1 C           3.617     2.327    -5.001  C    
      2 C           4.843     1.561    -5.212  C    
      3 C           5.444     1.328    -6.409  C    
      4 C           6.783     0.681    -6.420  C    
      5 C           7.394     0.472    -5.087  C    
      6 C           6.644     0.721    -3.983  C    
      7 N           5.412     1.144    -4.108  N    
      8 C           7.114     0.463    -2.620  C    
      9 C           8.655     0.232    -2.517  C    
     10 C           9.150    -0.603    -3.729  C    
     11 C           8.689     0.024    -4.962  C    
     12 O           9.510     0.235    -5.847  O    
     13 C           9.045    -0.381    -1.226  C    
     14 C           9.841     0.201    -0.228  C    
     15 C          10.043    -0.599     0.912  C    
     16 C           9.424    -1.846     0.854  C    
     17 S           8.601    -1.942    -0.650  S    
     18 C           6.721    -0.631    -7.160  C    
     19 C           5.908    -1.683    -6.666  C    
     20 C           5.800    -2.909    -7.349  C    
     21 C           6.511    -3.106    -8.544  C    
     22 C           7.332    -2.084    -9.047  C    
     23 C           7.441    -0.858    -8.363  C    
     24 F           8.224     0.055    -8.878  F    
     25 F           5.034    -3.856    -6.877  F    
     26 C           4.857     1.640    -7.636  C    
     27 O           5.620     2.081    -8.667  O    
     28 O           3.538     1.369    -7.855  O    
     29 C           2.815     1.584    -9.067  C    
     30 H           2.823     1.661    -4.656  H    
     31 H           3.260     2.849    -5.892  H    
     32 H           3.780     3.096    -4.240  H    
     33 H           7.442     1.384    -6.935  H    
     34 H           4.918     1.246    -3.317  H    
     35 H           6.853     1.307    -1.975  H    
     36 H           6.577    -0.416    -2.250  H    
     37 H           9.137     1.215    -2.581  H    
     38 H          10.241    -0.682    -3.709  H    
     39 H           8.738    -1.616    -3.686  H    
     40 H          10.244     1.136    -0.311  H    
     41 H          10.592    -0.290     1.716  H    
     42 H           9.442    -2.569     1.570  H    
     43 H           5.377    -1.556    -5.800  H    
     44 H           6.429    -3.994    -9.051  H    
     45 H           7.845    -2.238    -9.917  H    
     46 H           2.826     2.644    -9.328  H    
     47 H           1.780     1.272    -8.916  H    
     48 H           3.251     1.000    -9.880  H    
@<TRIPOS>BOND
     1    1    2 1
     2    2    7 1
     3    2    3 2
     4    3    4 1
     5    3   26 1
     6    4    5 1
     7    4   18 1
     8    5   11 1
     9    5    6 2
    10    6    7 1
    11    6    8 1
    12    8    9 1
    13    9   10 1
    14    9   13 1
    15   10   11 1
    16   11   12 2
    17   13   17 1
    18   13   14 2
    19   14   15 1
    20   15   16 2
    21   16   17 1
    22   18   23 ar
    23   18   19 ar
    24   19   20 ar
    25   20   21 ar
    26   20   25 1
    27   21   22 ar
    28   22   23 ar
    29   23   24 1
    30   26   27 2
    31   26   28 1
    32   28   29 1
    33    1   30 1
    34    1   31 1
    35    1   32 1
    36    4   33 1
    37    7   34 1
    38    8   35 1
    39    8   36 1
    40    9   37 1
    41   10   38 1
    42   10   39 1
    43   14   40 1
    44   15   41 1
    45   16   42 1
    46   19   43 1
    47   21   44 1
    48   22   45 1
    49   29   46 1
    50   29   47 1
    51   29   48 1
@<TRIPOS>MOLECULE
ZINC01185297
 39 41 0 0 0
SMALL
NO_CHARGES


@<TRIPOS>ATOM
      1 C          -2.241    -3.520    -0.763  C    
      2 C          -0.961    -3.230    -1.370  C    
      3 C          -0.344    -4.021    -2.265  C    
      4 N           0.807    -3.701    -2.750  N    
      5 N           1.325    -4.534    -3.550  N    
      6 C           2.551    -4.456    -4.152  C    
      7 N           3.334    -3.416    -3.790  N    
      8 C           2.969    -5.500    -5.030  C    
      9 C           4.123    -5.482    -5.747  C    
     10 C           4.954    -4.402    -6.015  C    
     11 C           4.432    -3.268    -6.684  C    
     12 C           5.264    -2.177    -7.002  C    
     13 C           6.622    -2.205    -6.632  C    
     14 C           7.147    -3.325    -5.970  C    
     15 C           6.337    -4.453    -5.682  C    
     16 O           6.793    -5.575    -5.016  O    
     17 C           8.177    -5.979    -5.123  C    
     18 C           8.336    -7.386    -4.532  C    
     19 Cl          4.631    -0.827    -7.801  Cl   
     20 C           2.119    -6.603    -5.113  C    
     21 O           2.361    -7.598    -5.782  O    
     22 N           0.938    -6.633    -4.501  N    
     23 C           0.526    -5.600    -3.732  C    
     24 S          -0.953    -5.517    -2.847  S    
     25 H          -3.012    -3.606    -1.531  H    
     26 H          -2.526    -2.721    -0.074  H    
     27 H          -2.190    -4.457    -0.205  H    
     28 H          -0.511    -2.386    -1.097  H    
     29 H           1.247    -2.917    -2.499  H    
     30 H           4.237    -3.320    -4.123  H    
     31 H           4.430    -6.331    -6.170  H    
     32 H           3.444    -3.232    -6.953  H    
     33 H           7.231    -1.415    -6.851  H    
     34 H           8.130    -3.309    -5.700  H    
     35 H           8.499    -5.989    -6.171  H    
     36 H           8.807    -5.285    -4.560  H    
     37 H           7.991    -7.399    -3.496  H    
     38 H           9.387    -7.683    -4.554  H    
     39 H           7.753    -8.104    -5.115  H    
@<TRIPOS>BOND
     1    1    2 1
     2    2    3 2
     3    3   24 1
     4    3    4 1
     5    4    5 1
     6    5   23 1
     7    5    6 1
     8    6    7 2
     9    6    8 1
    10    8    9 2
    11    8   20 1
    12    9   10 1
    13   10   15 ar
    14   10   11 ar
    15   11   12 ar
    16   12   13 ar
    17   12   19 1
    18   13   14 ar
    19   14   15 ar
    20   15   16 1
    21   16   17 1
    22   17   18 1
    23   20   21 2
    24   20   22 1
    25   22   23 2
    26   23   24 1
    27    1   25 1
    28    1   26 1
    29    1   27 1
    30    2   28 1
    31    4   29 1
    32    7   30 1
    33    9   31 1
    34   11   32 1
    35   13   33 1
    36   14   34 1
    37   17   35 1
    38   17   36 1
    39   18   37 1
    40   18   38 1
    41   18   39 1
@<TRIPOS>MOLECULE
ZINC01198747
 41 43 0 0 0
SMALL
NO_CHARGES


@<TRIPOS>ATOM
      1 C          -0.870    -3.853     3.655  C    
      2 C          -0.250    -3.830     2.248  C    
      3 O           0.655    -2.710     2.153  O    
      4 C           1.287    -2.611     0.939  C    
      5 C           2.532    -3.248     0.733  C    
      6 C           3.185    -3.133    -0.510  C    
      7 C           2.619    -2.379    -1.565  C    
      8 C           1.408    -1.691    -1.321  C    
      9 C           0.739    -1.809    -0.088  C    
     10 Cl         -0.716    -0.968     0.139  Cl   
     11 C           3.266    -2.235    -2.794  C    
     12 C           3.869    -3.200    -3.536  C    
     13 C           4.774    -2.865    -4.527  C    
     14 O           4.909    -1.727    -4.961  O    
     15 N           5.622    -3.767    -5.000  N    
     16 C           5.560    -5.045    -4.642  C    
     17 O           6.416    -5.778    -5.118  O    
     18 N           4.576    -5.470    -3.825  N    
     19 C           3.698    -4.567    -3.332  C    
     20 O           2.649    -4.954    -2.827  O    
     21 C           4.446    -6.817    -3.528  C    
     22 C           4.252    -7.780    -4.550  C    
     23 C           4.101    -9.143    -4.238  C    
     24 C           4.129    -9.567    -2.894  C    
     25 C           4.318    -8.622    -1.865  C    
     26 C           4.479    -7.262    -2.182  C    
     27 F           3.983   -10.830    -2.604  F    
     28 Cl          3.279    -4.141     1.964  Cl   
     29 H          -0.084    -3.940     4.410  H    
     30 H          -1.545    -4.708     3.747  H    
     31 H          -1.435    -2.935     3.830  H    
     32 H           0.278    -4.774     2.083  H    
     33 H          -1.054    -3.739     1.512  H    
     34 H           4.090    -3.589    -0.637  H    
     35 H           0.998    -1.109    -2.056  H    
     36 H           3.297    -1.301    -3.131  H    
     37 H           6.298    -3.488    -5.638  H    
     38 H           4.213    -7.488    -5.531  H    
     39 H           3.959    -9.824    -4.988  H    
     40 H           4.340    -8.924    -0.888  H    
     41 H           4.618    -6.590    -1.423  H    
@<TRIPOS>BOND
     1    1    2 1
     2    2    3 1
     3    3    4 1
     4    4    9 ar
     5    4    5 ar
     6    5    6 ar
     7    5   28 1
     8    6    7 ar
     9    7    8 ar
    10    7   11 1
    11    8    9 ar
    12    9   10 1
    13   11   12 2
    14   12   19 1
    15   12   13 1
    16   13   14 2
    17   13   15 1
    18   15   16 1
    19   16   17 2
    20   16   18 1
    21   18   19 1
    22   18   21 1
    23   19   20 2
    24   21   26 ar
    25   21   22 ar
    26   22   23 ar
    27   23   24 ar
    28   24   25 ar
    29   24   27 1
    30   25   26 ar
    31    1   29 1
    32    1   30 1
    33    1   31 1
    34    2   32 1
    35    2   33 1
    36    6   34 1
    37    8   35 1
    38   11   36 1
    39   15   37 1
    40   22   38 1
    41   23   39 1
    42   25   40 1
    43   26   41 1
@<TRIPOS>MOLECULE
ZINC01199724
 37 39 0 0 0
SMALL
NO_CHARGES


@<TRIPOS>ATOM
      1 C           6.296     0.829    -7.901  C    
      2 O           5.129     0.679    -7.071  O    
      3 C           4.154     1.624    -7.266  C    
      4 C           4.354     2.954    -6.836  C    
      5 C           3.349     3.922    -7.028  C    
      6 C           2.129     3.564    -7.632  C    
      7 C           1.911     2.234    -8.032  C    
      8 C           2.913     1.247    -7.850  C    
      9 C           2.668    -0.159    -8.271  C    
     10 N           2.664    -0.999    -7.156  N    
     11 C           2.547    -2.293    -7.199  C    
     12 C           2.625    -3.071    -6.105  C    
     13 C           2.840    -2.736    -4.808  C    
     14 O           3.053    -1.617    -4.369  O    
     15 C           2.817    -3.881    -4.052  C    
     16 C           2.585    -4.918    -4.951  C    
     17 C           2.499    -6.255    -4.528  C    
     18 C           2.650    -6.535    -3.156  C    
     19 C           2.880    -5.496    -2.228  C    
     20 C           2.967    -4.150    -2.671  C    
     21 Cl          3.238    -2.888    -1.570  Cl   
     22 Br          3.078    -5.964    -0.433  Br   
     23 N           2.476    -4.385    -6.173  N    
     24 H           6.051     1.055    -8.947  H    
     25 H           6.855    -0.111    -7.876  H    
     26 H           6.933     1.628    -7.502  H    
     27 H           5.234     3.222    -6.391  H    
     28 H           3.498     4.890    -6.727  H    
     29 H           1.396     4.270    -7.773  H    
     30 H           1.007     1.990    -8.443  H    
     31 H           1.708    -0.261    -8.791  H    
     32 H           3.455    -0.462    -8.966  H    
     33 H           2.775    -0.596    -6.319  H    
     34 H           2.374    -2.730    -8.077  H    
     35 H           2.327    -7.006    -5.200  H    
     36 H           2.592    -7.504    -2.833  H    
     37 H           2.320    -4.890    -6.986  H    
@<TRIPOS>BOND
     1    1    2 1
     2    2    3 1
     3    3    8 ar
     4    3    4 ar
     5    4    5 ar
     6    5    6 ar
     7    6    7 ar
     8    7    8 ar
     9    8    9 1
    10    9   10 1
    11   10   11 1
    12   11   12 2
    13   12   23 1
    14   12   13 1
    15   13   14 2
    16   13   15 1
    17   15   20 ar
    18   15   16 ar
    19   16   17 ar
    20   16   23 1
    21   17   18 ar
    22   18   19 ar
    23   19   20 ar
    24   19   22 1
    25   20   21 1
    26    1   24 1
    27    1   25 1
    28    1   26 1
    29    4   27 1
    30    5   28 1
    31    6   29 1
    32    7   30 1
    33    9   31 1
    34    9   32 1
    35   10   33 1
    36   11   34 1
    37   17   35 1
    38   18   36 1
    39   23   37 1
@<TRIPOS>MOLECULE
ZINC01213602
 42 44 0 0 0
SMALL
NO_CHARGES


@<TRIPOS>ATOM
      1 C          -1.986    -1.752     1.298  C    
      2 O          -1.760    -2.552     0.125  O    
      3 C          -0.573    -3.234     0.156  C    
      4 C          -0.543    -4.542     0.675  C    
      5 C           0.662    -5.261     0.712  C    
      6 C           1.839    -4.681     0.213  C    
      7 C           1.827    -3.385    -0.359  C    
      8 C           0.604    -2.662    -0.382  C    
      9 O           0.543    -1.391    -0.896  O    
     10 C           0.233    -1.356    -2.299  C    
     11 C           3.003    -2.800    -0.828  C    
     12 C           3.959    -3.351    -1.622  C    
     13 C           5.198    -2.744    -1.752  C    
     14 O           5.436    -1.602    -1.382  O    
     15 N           6.233    -3.411    -2.250  N    
     16 C           6.108    -4.640    -2.735  C    
     17 O           7.131    -5.167    -3.155  O    
     18 N           4.894    -5.218    -2.793  N    
     19 C           3.820    -4.556    -2.305  C    
     20 O           2.693    -4.960    -2.584  O    
     21 C           4.756    -6.460    -3.375  C    
     22 C           4.769    -6.602    -4.782  C    
     23 C           4.631    -7.872    -5.372  C    
     24 C           4.478    -9.014    -4.562  C    
     25 C           4.459    -8.880    -3.159  C    
     26 C           4.594    -7.609    -2.569  C    
     27 Cl          4.318   -10.543    -5.272  Cl   
     28 Br          0.704    -6.974     1.438  Br   
     29 H          -1.995    -2.364     2.205  H    
     30 H          -2.961    -1.272     1.200  H    
     31 H          -1.229    -0.971     1.396  H    
     32 H          -1.398    -4.964     1.041  H    
     33 H           2.712    -5.211     0.280  H    
     34 H           0.987    -1.881    -2.889  H    
     35 H           0.217    -0.313    -2.618  H    
     36 H          -0.750    -1.788    -2.499  H    
     37 H           3.140    -1.862    -0.523  H    
     38 H           7.104    -2.983    -2.270  H    
     39 H           4.877    -5.779    -5.380  H    
     40 H           4.643    -7.959    -6.392  H    
     41 H           4.348    -9.703    -2.563  H    
     42 H           4.581    -7.524    -1.549  H    
@<TRIPOS>BOND
     1    1    2 1
     2    2    3 1
     3    3    8 ar
     4    3    4 ar
     5    4    5 ar
     6    5    6 ar
     7    5   28 1
     8    6    7 ar
     9    7    8 ar
    10    7   11 1
    11    8    9 1
    12    9   10 1
    13   11   12 2
    14   12   19 1
    15   12   13 1
    16   13   14 2
    17   13   15 1
    18   15   16 1
    19   16   17 2
    20   16   18 1
    21   18   19 1
    22   18   21 1
    23   19   20 2
    24   21   26 ar
    25   21   22 ar
    26   22   23 ar
    27   23   24 ar
    28   24   25 ar
    29   24   27 1
    30   25   26 ar
    31    1   29 1
    32    1   30 1
    33    1   31 1
    34    4   32 1
    35    6   33 1
    36   10   34 1
    37   10   35 1
    38   10   36 1
    39   11   37 1
    40   15   38 1
    41   22   39 1
    42   23   40 1
    43   25   41 1
    44   26   42 1
@<TRIPOS>MOLECULE
ZINC01214791
 27 29 0 0 0
SMALL
NO_CHARGES


@<TRIPOS>ATOM
      1 C           1.391    -1.625    -3.452  C    
      2 C           0.829    -1.331    -4.705  C    
      3 C           1.656    -0.812    -5.713  C    
      4 C           3.014    -0.582    -5.486  C    
      5 C           3.604    -0.875    -4.230  C    
      6 C           2.763    -1.400    -3.220  C    
      7 N           4.902    -0.704    -3.884  N    
      8 C           6.063    -0.277    -4.348  C    
      9 C           6.298     0.248    -5.600  C    
     10 C           6.297     1.652    -5.809  C    
     11 C           6.524     2.167    -7.099  C    
     12 C           6.758     1.300    -8.178  C    
     13 C           6.776    -0.089    -7.979  C    
     14 C           6.555    -0.623    -6.693  C    
     15 O           6.564    -1.979    -6.557  O    
     16 Br          7.077    -1.205    -9.440  Br   
     17 Cl          5.997     2.767    -4.562  Cl   
     18 N           3.569    -0.097    -6.560  N    
     19 S           2.539     0.087    -7.839  S    
     20 N           1.293    -0.493    -6.922  N    
     21 H           0.803    -2.004    -2.707  H    
     22 H          -0.166    -1.493    -4.879  H    
     23 H           3.145    -1.624    -2.297  H    
     24 H           6.830    -0.311    -3.720  H    
     25 H           6.516     3.175    -7.266  H    
     26 H           6.917     1.686    -9.111  H    
     27 H           6.374    -2.166    -5.616  H    
@<TRIPOS>BOND
     1    1    6 ar
     2    1    2 ar
     3    2    3 ar
     4    3   20 2
     5    3    4 ar
     6    4    5 ar
     7    4   18 2
     8    5    6 ar
     9    5    7 1
    10    7    8 2
    11    8    9 1
    12    9   14 ar
    13    9   10 ar
    14   10   11 ar
    15   10   17 1
    16   11   12 ar
    17   12   13 ar
    18   13   14 ar
    19   13   16 1
    20   14   15 1
    21   18   19 1
    22   19   20 1
    23    1   21 1
    24    2   22 1
    25    6   23 1
    26    8   24 1
    27   11   25 1
    28   12   26 1
    29   15   27 1
@<TRIPOS>MOLECULE
ZINC01217227
 45 46 0 0 0
SMALL
NO_CHARGES


@<TRIPOS>ATOM
      1 C          -1.804    -6.877    -3.783  C    
      2 C          -0.392    -6.405    -3.797  C    
      3 C          -0.075    -5.189    -3.150  C    
      4 C           1.236    -4.686    -3.114  C    
      5 C           2.255    -5.430    -3.747  C    
      6 C           1.985    -6.646    -4.417  C    
      7 C           0.648    -7.137    -4.437  C    
      8 Cl          0.272    -8.600    -5.226  Cl   
      9 C           3.144    -7.320    -5.065  C    
     10 O           1.402    -3.501    -2.427  O    
     11 C           2.606    -2.719    -2.560  C    
     12 C           2.550    -1.419    -1.901  C    
     13 O           1.534    -1.263    -1.238  O    
     14 N           3.459    -0.416    -2.014  N    
     15 C           4.717    -0.508    -2.785  C    
     16 C           4.471     0.162    -4.171  C    
     17 C           3.989     1.627    -4.000  C    
     18 C           2.824     1.748    -2.977  C    
     19 C           3.128     0.985    -1.649  C    
     20 C           2.049     1.332    -0.578  C    
     21 C           5.521    -1.833    -2.926  C    
     22 H          -2.168    -6.978    -4.807  H    
     23 H          -2.477    -6.197    -3.256  H    
     24 H          -1.858    -7.850    -3.287  H    
     25 H          -0.813    -4.649    -2.686  H    
     26 H           3.215    -5.082    -3.719  H    
     27 H           3.572    -6.661    -5.824  H    
     28 H           2.891    -8.261    -5.553  H    
     29 H           3.913    -7.533    -4.321  H    
     30 H           3.417    -3.296    -2.116  H    
     31 H           2.781    -2.553    -3.625  H    
     32 H           5.453     0.120    -2.267  H    
     33 H           5.392     0.164    -4.760  H    
     34 H           3.716    -0.407    -4.722  H    
     35 H           4.829     2.238    -3.654  H    
     36 H           3.668     2.021    -4.969  H    
     37 H           2.653     2.810    -2.777  H    
     38 H           1.916     1.337    -3.427  H    
     39 H           4.029     1.437    -1.214  H    
     40 H           1.041     1.142    -0.948  H    
     41 H           2.111     2.387    -0.304  H    
     42 H           2.218     0.742     0.326  H    
     43 H           5.581    -2.337    -1.962  H    
     44 H           6.542    -1.619    -3.255  H    
     45 H           5.084    -2.504    -3.666  H    
@<TRIPOS>BOND
     1    1    2 1
     2    2    7 ar
     3    2    3 ar
     4    3    4 ar
     5    4    5 ar
     6    4   10 1
     7    5    6 ar
     8    6    7 ar
     9    6    9 1
    10    7    8 1
    11   10   11 1
    12   11   12 1
    13   12   13 2
    14   12   14 1
    15   14   19 1
    16   14   15 1
    17   15   16 1
    18   15   21 1
    19   16   17 1
    20   17   18 1
    21   18   19 1
    22   19   20 1
    23    1   22 1
    24    1   23 1
    25    1   24 1
    26    3   25 1
    27    5   26 1
    28    9   27 1
    29    9   28 1
    30    9   29 1
    31   11   30 1
    32   11   31 1
    33   15   32 1
    34   16   33 1
    35   16   34 1
    36   17   35 1
    37   17   36 1
    38   18   37 1
    39   18   38 1
    40   19   39 1
    41   20   40 1
    42   20   41 1
    43   20   42 1
    44   21   43 1
    45   21   44 1
    46   21   45 1
@<TRIPOS>MOLECULE
ZINC01227542
 28 29 0 0 0
SMALL
NO_CHARGES


@<TRIPOS>ATOM
      1 C           0.536    -7.914    -2.174  C    
      2 C           0.467    -6.873    -1.238  C    
      3 C           0.891    -5.583    -1.597  C    
      4 C           1.374    -5.311    -2.898  C    
      5 C           1.510    -6.382    -3.834  C    
      6 C           1.053    -7.671    -3.460  C    
      7 C           2.157    -6.234    -5.092  C    
      8 O           3.174    -5.356    -5.260  O    
      9 N           1.687    -4.001    -3.132  N    
     10 C           1.327    -3.239    -4.161  C    
     11 O           0.642    -3.708    -5.065  O    
     12 C           1.695    -1.893    -4.223  C    
     13 C           1.924    -1.133    -3.044  C    
     14 C           2.303     0.221    -3.114  C    
     15 C           2.466     0.846    -4.363  C    
     16 C           2.248     0.115    -5.544  C    
     17 C           1.860    -1.237    -5.471  C    
     18 Br          2.480     0.933    -7.199  Br   
     19 O           1.904    -7.069    -6.129  O    
     20 H           0.227    -8.855    -1.914  H    
     21 H           0.111    -7.057    -0.296  H    
     22 H           0.814    -4.830    -0.906  H    
     23 H           1.123    -8.460    -4.107  H    
     24 H           2.133    -3.545    -2.403  H    
     25 H           1.798    -1.548    -2.119  H    
     26 H           2.456     0.754    -2.254  H    
     27 H           2.743     1.828    -4.408  H    
     28 H           1.716    -1.747    -6.346  H    
@<TRIPOS>BOND
     1    1    6 ar
     2    1    2 ar
     3    2    3 ar
     4    3    4 ar
     5    4    5 ar
     6    4    9 1
     7    5    6 ar
     8    5    7 1
     9    7    8 2
    10    7   19 1
    11    9   10 1
    12   10   11 2
    13   10   12 1
    14   12   17 ar
    15   12   13 ar
    16   13   14 ar
    17   14   15 ar
    18   15   16 ar
    19   16   17 ar
    20   16   18 1
    21    1   20 1
    22    2   21 1
    23    3   22 1
    24    6   23 1
    25    9   24 1
    26   13   25 1
    27   14   26 1
    28   15   27 1
    29   17   28 1
@<TRIPOS>MOLECULE
ZINC01281123
 38 40 0 0 0
SMALL
NO_CHARGES


@<TRIPOS>ATOM
      1 C           4.709    -8.758    -2.527  C    
      2 C           4.786    -7.308    -2.817  C    
      3 C           5.688    -6.790    -3.772  C    
      4 C           5.744    -5.408    -4.030  C    
      5 C           4.903    -4.490    -3.347  C    
      6 C           3.998    -5.029    -2.394  C    
      7 C           3.942    -6.410    -2.132  C    
      8 C           4.945    -3.112    -3.609  C    
      9 O           4.076    -2.379    -3.149  O    
     10 N           5.952    -2.560    -4.280  N    
     11 N           6.128    -1.290    -4.609  N    
     12 C           5.220    -0.460    -5.100  C    
     13 O           4.113    -0.845    -5.455  O    
     14 C           5.703     0.764    -5.406  C    
     15 C           5.038     1.868    -5.804  C    
     16 C           3.661     2.085    -5.801  C    
     17 C           2.839     1.707    -4.710  C    
     18 C           1.457     1.968    -4.723  C    
     19 C           0.873     2.627    -5.822  C    
     20 C           1.680     3.036    -6.899  C    
     21 C           3.063     2.778    -6.883  C    
     22 Cl         -0.790     2.943    -5.838  Cl   
     23 S           7.404     0.821    -5.266  S    
     24 C           7.336    -0.751    -4.629  C    
     25 S           8.780    -1.495    -4.111  S    
     26 H           4.936    -8.935    -1.474  H    
     27 H           5.414    -9.336    -3.129  H    
     28 H           3.702    -9.123    -2.738  H    
     29 H           6.309    -7.416    -4.290  H    
     30 H           6.402    -5.087    -4.744  H    
     31 H           3.367    -4.418    -1.868  H    
     32 H           3.278    -6.758    -1.435  H    
     33 H           6.702    -3.143    -4.471  H    
     34 H           5.589     2.621    -6.153  H    
     35 H           3.243     1.255    -3.886  H    
     36 H           0.882     1.684    -3.926  H    
     37 H           1.268     3.526    -7.698  H    
     38 H           3.629     3.086    -7.680  H    
@<TRIPOS>BOND
     1    1    2 1
     2    2    7 ar
     3    2    3 ar
     4    3    4 ar
     5    4    5 ar
     6    5    6 ar
     7    5    8 1
     8    6    7 ar
     9    8    9 2
    10    8   10 1
    11   10   11 1
    12   11   24 1
    13   11   12 1
    14   12   13 2
    15   12   14 1
    16   14   15 2
    17   14   23 1
    18   15   16 1
    19   16   21 ar
    20   16   17 ar
    21   17   18 ar
    22   18   19 ar
    23   19   20 ar
    24   19   22 1
    25   20   21 ar
    26   23   24 1
    27   24   25 2
    28    1   26 1
    29    1   27 1
    30    1   28 1
    31    3   29 1
    32    4   30 1
    33    6   31 1
    34    7   32 1
    35   10   33 1
    36   15   34 1
    37   17   35 1
    38   18   36 1
    39   20   37 1
    40   21   38 1
@<TRIPOS>MOLECULE
ZINC01295792
 22 22 0 0 0
SMALL
NO_CHARGES


@<TRIPOS>ATOM
      1 C          -1.460    -7.230    -3.654  C    
      2 C          -0.820    -7.536    -2.439  C    
      3 C           0.300    -6.792    -2.023  C    
      4 C           0.793    -5.738    -2.823  C    
      5 C           0.141    -5.432    -4.038  C    
      6 C          -0.980    -6.177    -4.454  C    
      7 S           2.172    -4.807    -2.307  S    
      8 O           3.075    -5.666    -1.316  O    
      9 O           3.012    -4.413    -3.600  O    
     10 N           1.621    -3.414    -1.539  N    
     11 P           2.600    -2.392    -0.933  P    
     12 O           3.605    -1.976    -1.879  O    
     13 N           1.829    -1.183    -0.511  N    
     14 O           3.281    -2.986     0.320  O    
     15 H          -2.275    -7.768    -3.955  H    
     16 H          -1.169    -8.299    -1.858  H    
     17 H           0.748    -7.021    -1.136  H    
     18 H           0.472    -4.662    -4.626  H    
     19 H          -1.451    -5.949    -5.334  H    
     20 H           0.717    -3.430    -1.188  H    
     21 H           2.303    -0.411    -0.281  H    
     22 H           0.963    -1.310    -0.161  H    
@<TRIPOS>BOND
     1    1    6 ar
     2    1    2 ar
     3    2    3 ar
     4    3    4 ar
     5    4    5 ar
     6    4    7 1
     7    5    6 ar
     8    7    8 2
     9    7    9 2
    10    7   10 1
    11   10   11 1
    12   11   12 2
    13   11   13 1
    14   11   14 1
    15    1   15 1
    16    2   16 1
    17    3   17 1
    18    5   18 1
    19    6   19 1
    20   10   20 1
    21   13   21 1
    22   13   22 1
@<TRIPOS>MOLECULE
ZINC01303623
 62 65 0 0 0
SMALL
NO_CHARGES


@<TRIPOS>ATOM
      1 C          -0.790    -7.260    -3.227  C    
      2 C          -0.043    -6.882    -4.433  C    
      3 O          -0.369    -7.459    -5.612  O    
      4 O           0.983    -5.994    -4.339  O    
      5 C           1.819    -5.503    -5.399  C    
      6 C           1.073    -4.463    -6.293  C    
      7 C           1.963    -3.271    -6.759  C    
      8 C           3.470    -3.618    -7.080  C    
      9 C           4.112    -4.367    -5.821  C    
     10 C           3.094    -4.904    -4.757  C    
     11 C           5.183    -3.516    -5.086  C    
     12 C           6.326    -3.064    -6.027  C    
     13 C           5.872    -2.595    -7.455  C    
     14 C           4.317    -2.332    -7.539  C    
     15 C           3.991    -1.016    -6.944  C    
     16 O           2.874    -0.547    -7.126  O    
     17 C           5.029    -0.058    -6.563  C    
     18 C           6.145     0.047    -7.663  C    
     19 C           6.670    -1.383    -8.079  C    
     20 C           8.214    -1.373    -7.857  C    
     21 C           8.477    -0.254    -6.836  C    
     22 C           7.402     0.806    -7.121  C    
     23 O           8.913    -1.058    -9.075  O    
     24 C           9.155    -1.891   -10.117  C    
     25 O           8.800    -3.200   -10.071  O    
     26 C           9.787    -1.347   -11.324  C    
     27 C           5.567     0.826    -8.897  C    
     28 C           3.436    -4.614    -8.308  C    
     29 H          -1.847    -7.030    -3.365  H    
     30 H          -0.423    -6.718    -2.352  H    
     31 H          -0.677    -8.330    -3.051  H    
     32 H           2.135    -6.355    -6.005  H    
     33 H           0.654    -4.975    -7.163  H    
     34 H           0.223    -4.050    -5.737  H    
     35 H           1.486    -2.793    -7.618  H    
     36 H           1.948    -2.550    -5.939  H    
     37 H           4.654    -5.245    -6.182  H    
     38 H           2.786    -4.098    -4.079  H    
     39 H           3.574    -5.676    -4.146  H    
     40 H           4.698    -2.632    -4.650  H    
     41 H           5.621    -4.085    -4.257  H    
     42 H           6.854    -2.271    -5.506  H    
     43 H           7.029    -3.891    -6.139  H    
     44 H           6.083    -3.440    -8.116  H    
     45 H           4.111    -2.174    -8.601  H    
     46 H           4.603     0.936    -6.378  H    
     47 H           5.454    -0.384    -5.613  H    
     48 H           6.514    -1.499    -9.159  H    
     49 H           8.595    -2.318    -7.468  H    
     50 H           8.375    -0.626    -5.815  H    
     51 H           9.483     0.159    -6.948  H    
     52 H           7.805     1.498    -7.865  H    
     53 H           7.188     1.383    -6.214  H    
     54 H           9.163    -0.547   -11.726  H    
     55 H           9.904    -2.117   -12.087  H    
     56 H          10.770    -0.942   -11.078  H    
     57 H           4.702     0.312    -9.320  H    
     58 H           6.317     0.914    -9.685  H    
     59 H           5.258     1.832    -8.607  H    
     60 H           2.894    -5.533    -8.087  H    
     61 H           4.438    -4.915    -8.616  H    
     62 H           2.952    -4.153    -9.171  H    
@<TRIPOS>BOND
     1    1    2 1
     2    2    3 2
     3    2    4 1
     4    4    5 1
     5    5   10 1
     6    5    6 1
     7    6    7 1
     8    7    8 1
     9    8   14 1
    10    8    9 1
    11    8   28 1
    12    9   10 1
    13    9   11 1
    14   11   12 1
    15   12   13 1
    16   13   19 1
    17   13   14 1
    18   14   15 1
    19   15   16 2
    20   15   17 1
    21   17   18 1
    22   18   22 1
    23   18   19 1
    24   18   27 1
    25   19   20 1
    26   20   21 1
    27   20   23 1
    28   21   22 1
    29   23   24 1
    30   24   25 2
    31   24   26 1
    32    1   29 1
    33    1   30 1
    34    1   31 1
    35    5   32 1
    36    6   33 1
    37    6   34 1
    38    7   35 1
    39    7   36 1
    40    9   37 1
    41   10   38 1
    42   10   39 1
    43   11   40 1
    44   11   41 1
    45   12   42 1
    46   12   43 1
    47   13   44 1
    48   14   45 1
    49   17   46 1
    50   17   47 1
    51   19   48 1
    52   20   49 1
    53   21   50 1
    54   21   51 1
    55   22   52 1
    56   22   53 1
    57   26   54 1
    58   26   55 1
    59   26   56 1
    60   27   57 1
    61   27   58 1
    62   27   59 1
    63   28   60 1
    64   28   61 1
    65   28   62 1
@<TRIPOS>MOLECULE
ZINC01329498
 46 49 0 0 0
SMALL
NO_CHARGES


@<TRIPOS>ATOM
      1 C           6.103    -2.703    -3.503  C    
      2 C           7.451    -3.106    -3.457  C    
      3 C           8.322    -2.790    -4.521  C    
      4 C           7.836    -2.073    -5.634  C    
      5 C           6.487    -1.671    -5.681  C    
      6 C           5.604    -1.973    -4.613  C    
      7 C           4.174    -1.561    -4.643  C    
      8 N           3.847    -0.690    -3.552  N    
      9 C           4.179     0.597    -3.359  C    
     10 N           3.606     0.933    -2.201  N    
     11 N           3.006    -0.091    -1.784  N    
     12 N           3.139    -1.027    -2.562  N    
     13 C           4.947     1.538    -4.202  C    
     14 C           7.168     1.179    -3.060  C    
     15 C           8.567     1.813    -2.807  C    
     16 C           9.712     3.925    -2.100  C    
     17 C          10.024     4.665    -3.410  C    
     18 C           8.642     5.039    -3.973  C    
     19 C           7.638     4.103    -3.248  C    
     20 C           6.672     3.336    -4.202  C    
     21 F           9.573    -3.158    -4.473  F    
     22 N           6.102     2.159    -3.478  N    
     23 N           8.430     3.222    -2.337  N    
     24 H           5.485    -2.940    -2.721  H    
     25 H           7.799    -3.625    -2.644  H    
     26 H           8.462    -1.848    -6.411  H    
     27 H           6.151    -1.154    -6.500  H    
     28 H           3.921    -1.061    -5.582  H    
     29 H           3.564    -2.471    -4.593  H    
     30 H           5.293     1.042    -5.110  H    
     31 H           4.239     2.314    -4.503  H    
     32 H           7.292     0.389    -3.805  H    
     33 H           6.831     0.702    -2.134  H    
     34 H           9.104     1.216    -2.065  H    
     35 H           9.142     1.787    -3.736  H    
     36 H          10.532     3.258    -1.817  H    
     37 H           9.572     4.651    -1.291  H    
     38 H          10.646     5.547    -3.235  H    
     39 H          10.542     3.991    -4.102  H    
     40 H           8.414     6.084    -3.745  H    
     41 H           8.630     4.916    -5.059  H    
     42 H           7.013     4.718    -2.592  H    
     43 H           5.881     4.024    -4.519  H    
     44 H           7.196     2.988    -5.098  H    
     45 H           5.714     2.537    -2.609  H    
     46 H           7.936     3.178    -1.444  H    
@<TRIPOS>BOND
     1    1    6 ar
     2    1    2 ar
     3    2    3 ar
     4    3    4 ar
     5    3   21 1
     6    4    5 ar
     7    5    6 ar
     8    6    7 1
     9    7    8 1
    10    8   12 1
    11    8    9 1
    12    9   10 2
    13    9   13 1
    14   10   11 1
    15   11   12 2
    16   13   22 1
    17   14   15 1
    18   14   22 1
    19   15   23 1
    20   16   17 1
    21   16   23 1
    22   17   18 1
    23   18   19 1
    24   19   20 1
    25   19   23 1
    26   20   22 1
    27    1   24 1
    28    2   25 1
    29    4   26 1
    30    5   27 1
    31    7   28 1
    32    7   29 1
    33   13   30 1
    34   13   31 1
    35   14   32 1
    36   14   33 1
    37   15   34 1
    38   15   35 1
    39   16   36 1
    40   16   37 1
    41   17   38 1
    42   17   39 1
    43   18   40 1
    44   18   41 1
    45   19   42 1
    46   20   43 1
    47   20   44 1
    48   22   45 1
    49   23   46 1
@<TRIPOS>MOLECULE
ZINC01339119
 49 51 0 0 0
SMALL
NO_CHARGES


@<TRIPOS>ATOM
      1 C           2.249    -8.410    -5.424  C    
      2 C           1.140    -9.082    -4.887  C    
      3 C           0.112    -8.348    -4.272  C    
      4 C           0.194    -6.938    -4.193  C    
      5 C           1.311    -6.228    -4.726  C    
      6 C           2.328    -7.006    -5.349  C    
      7 C           1.418    -4.825    -4.636  C    
      8 O           0.385    -4.161    -4.613  O    
      9 C           2.672    -4.081    -4.743  C    
     10 C           3.796    -1.860    -4.623  C    
     11 C           3.660    -0.406    -4.097  C    
     12 C           3.558    -0.380    -2.542  C    
     13 C           2.406    -1.314    -2.057  C    
     14 C           2.570    -2.742    -2.631  C    
     15 C           3.990     1.121    -0.563  C    
     16 C           4.202     2.601    -0.148  C    
     17 C           2.925     3.446    -0.395  C    
     18 C           2.416     3.283    -1.848  C    
     19 C           2.247     1.788    -2.211  C    
     20 F          -0.783    -6.329    -3.561  F    
     21 N           2.663    -2.709    -4.130  N    
     22 N           3.524     1.024    -1.988  N    
     23 H           2.998    -8.945    -5.866  H    
     24 H           1.082   -10.103    -4.936  H    
     25 H          -0.691    -8.848    -3.869  H    
     26 H           3.144    -6.551    -5.767  H    
     27 H           3.478    -4.653    -4.276  H    
     28 H           2.892    -4.006    -5.812  H    
     29 H           3.789    -1.807    -5.717  H    
     30 H           4.762    -2.277    -4.318  H    
     31 H           4.529     0.178    -4.418  H    
     32 H           2.768     0.039    -4.549  H    
     33 H           4.498    -0.832    -2.199  H    
     34 H           2.397    -1.371    -0.965  H    
     35 H           1.438    -0.927    -2.385  H    
     36 H           3.460    -3.205    -2.194  H    
     37 H           1.703    -3.325    -2.308  H    
     38 H           4.949     0.605    -0.447  H    
     39 H           3.272     0.652     0.115  H    
     40 H           4.474     2.650     0.911  H    
     41 H           5.029     3.021    -0.730  H    
     42 H           2.142     3.129     0.304  H    
     43 H           3.142     4.501    -0.201  H    
     44 H           1.458     3.801    -1.959  H    
     45 H           3.130     3.739    -2.539  H    
     46 H           1.435     1.370    -1.609  H    
     47 H           1.941     1.744    -3.257  H    
     48 H           1.819    -2.239    -4.463  H    
     49 H           4.239     1.526    -2.518  H    
@<TRIPOS>BOND
     1    1    6 ar
     2    1    2 ar
     3    2    3 ar
     4    3    4 ar
     5    4    5 ar
     6    4   20 1
     7    5    6 ar
     8    5    7 1
     9    7    8 2
    10    7    9 1
    11    9   21 1
    12   10   11 1
    13   10   21 1
    14   11   12 1
    15   12   13 1
    16   12   22 1
    17   13   14 1
    18   14   21 1
    19   15   16 1
    20   15   22 1
    21   16   17 1
    22   17   18 1
    23   18   19 1
    24   19   22 1
    25    1   23 1
    26    2   24 1
    27    3   25 1
    28    6   26 1
    29    9   27 1
    30    9   28 1
    31   10   29 1
    32   10   30 1
    33   11   31 1
    34   11   32 1
    35   12   33 1
    36   13   34 1
    37   13   35 1
    38   14   36 1
    39   14   37 1
    40   15   38 1
    41   15   39 1
    42   16   40 1
    43   16   41 1
    44   17   42 1
    45   17   43 1
    46   18   44 1
    47   18   45 1
    48   19   46 1
    49   19   47 1
    50   21   48 1
    51   22   49 1
@<TRIPOS>MOLECULE
ZINC01340961
 40 42 0 0 0
SMALL
NO_CHARGES


@<TRIPOS>ATOM
      1 C          -0.665    -4.095    -3.236  C    
      2 C          -0.938    -5.202    -2.414  C    
      3 C           0.113    -5.904    -1.771  C    
      4 C           1.441    -5.444    -1.969  C    
      5 C           1.732    -4.322    -2.781  C    
      6 C           0.660    -3.663    -3.431  C    
      7 N           3.052    -4.012    -2.949  N    
      8 C           3.632    -2.830    -3.273  C    
      9 C           5.031    -2.798    -3.467  C    
     10 C           5.660    -1.590    -3.832  C    
     11 C           4.898    -0.407    -4.012  C    
     12 C           3.512    -0.484    -3.739  C    
     13 N           2.939    -1.663    -3.393  N    
     14 C           5.495     0.776    -4.437  C    
     15 O           6.472     1.140    -3.792  O    
     16 N           5.105     1.481    -5.513  N    
     17 C           4.105     1.065    -6.456  C    
     18 C           4.290     1.973    -7.687  C    
     19 C           4.919     3.241    -7.097  C    
     20 C           5.730     2.714    -5.899  C    
     21 C          -0.137    -7.094    -0.916  C    
     22 F           0.551    -8.178    -1.405  F    
     23 F           0.292    -6.847     0.366  F    
     24 F          -1.458    -7.474    -0.829  F    
     25 H          -1.430    -3.611    -3.712  H    
     26 H          -1.914    -5.491    -2.304  H    
     27 H           2.211    -5.940    -1.511  H    
     28 H           0.826    -2.893    -4.081  H    
     29 H           3.670    -4.744    -2.789  H    
     30 H           5.597    -3.650    -3.379  H    
     31 H           6.674    -1.590    -3.997  H    
     32 H           2.919     0.348    -3.785  H    
     33 H           4.232     0.018    -6.749  H    
     34 H           3.105     1.210    -6.037  H    
     35 H           4.981     1.508    -8.397  H    
     36 H           3.343     2.185    -8.187  H    
     37 H           5.547     3.760    -7.823  H    
     38 H           4.132     3.918    -6.748  H    
     39 H           5.711     3.445    -5.085  H    
     40 H           6.768     2.529    -6.197  H    
@<TRIPOS>BOND
     1    1    6 ar
     2    1    2 ar
     3    2    3 ar
     4    3    4 ar
     5    3   21 1
     6    4    5 ar
     7    5    6 ar
     8    5    7 1
     9    7    8 1
    10    8   13 ar
    11    8    9 ar
    12    9   10 ar
    13   10   11 ar
    14   11   12 ar
    15   11   14 1
    16   12   13 ar
    17   14   15 2
    18   14   16 1
    19   16   20 1
    20   16   17 1
    21   17   18 1
    22   18   19 1
    23   19   20 1
    24   21   22 1
    25   21   23 1
    26   21   24 1
    27    1   25 1
    28    2   26 1
    29    4   27 1
    30    6   28 1
    31    7   29 1
    32    9   30 1
    33   10   31 1
    34   12   32 1
    35   17   33 1
    36   17   34 1
    37   18   35 1
    38   18   36 1
    39   19   37 1
    40   19   38 1
    41   20   39 1
    42   20   40 1
@<TRIPOS>MOLECULE
ZINC01342771
 52 56 0 0 0
SMALL
NO_CHARGES


@<TRIPOS>ATOM
      1 C           0.947    -1.826     2.023  C    
      2 C           1.218    -2.987     1.143  C    
      3 C           0.198    -3.901     0.785  C    
      4 C           0.477    -5.003    -0.046  C    
      5 C           1.781    -5.205    -0.534  C    
      6 C           2.819    -4.286    -0.193  C    
      7 C           2.525    -3.192     0.646  C    
      8 C           4.119    -4.507    -0.704  C    
      9 C           4.369    -5.626    -1.529  C    
     10 C           5.592    -6.018    -2.117  C    
     11 C           5.524    -7.210    -2.877  C    
     12 S           3.889    -7.759    -2.788  S    
     13 C           3.297    -6.486    -1.807  C    
     14 N           2.048    -6.280    -1.326  N    
     15 C           6.535    -7.880    -3.555  C    
     16 O           7.639    -7.361    -3.647  O    
     17 N           6.292    -9.064    -4.111  N    
     18 C           7.154    -9.965    -4.681  C    
     19 C           8.451   -10.155    -4.143  C    
     20 C           9.254   -11.231    -4.551  C    
     21 C           8.754   -12.162    -5.470  C    
     22 C           7.465   -11.993    -6.007  C    
     23 C           6.649   -10.884    -5.653  C    
     24 N           5.426   -10.732    -6.266  N    
     25 C           5.003    -9.461    -6.828  C    
     26 C           3.531    -9.134    -6.443  C    
     27 O           2.815   -10.267    -5.911  O    
     28 C           3.063   -11.490    -6.630  C    
     29 C           4.570   -11.871    -6.549  C    
     30 N           6.720    -5.299    -1.936  N    
     31 H           1.555    -1.901     2.927  H    
     32 H          -0.101    -1.769     2.321  H    
     33 H           1.203    -0.901     1.499  H    
     34 H          -0.754    -3.771     1.129  H    
     35 H          -0.273    -5.653    -0.297  H    
     36 H           3.270    -2.539     0.905  H    
     37 H           4.880    -3.867    -0.465  H    
     38 H           5.361    -9.337    -4.120  H    
     39 H           8.806    -9.553    -3.401  H    
     40 H          10.186   -11.358    -4.150  H    
     41 H           9.330   -12.958    -5.757  H    
     42 H           7.152   -12.670    -6.707  H    
     43 H           5.656    -8.618    -6.572  H    
     44 H           5.058    -9.557    -7.920  H    
     45 H           3.521    -8.351    -5.683  H    
     46 H           2.995    -8.749    -7.314  H    
     47 H           2.454   -12.283    -6.189  H    
     48 H           2.751   -11.378    -7.672  H    
     49 H           4.870   -12.334    -7.491  H    
     50 H           4.682   -12.612    -5.753  H    
     51 H           7.554    -5.580    -2.343  H    
     52 H           6.702    -4.486    -1.404  H    
@<TRIPOS>BOND
     1    1    2 1
     2    2    7 ar
     3    2    3 ar
     4    3    4 ar
     5    4    5 ar
     6    5   14 ar
     7    5    6 ar
     8    6    7 ar
     9    6    8 ar
    10    8    9 ar
    11    9   13 ar
    12    9   10 1
    13   10   11 2
    14   10   30 1
    15   11   12 1
    16   11   15 1
    17   12   13 1
    18   13   14 ar
    19   15   16 2
    20   15   17 1
    21   17   18 1
    22   18   23 ar
    23   18   19 ar
    24   19   20 ar
    25   20   21 ar
    26   21   22 ar
    27   22   23 ar
    28   23   24 1
    29   24   29 1
    30   24   25 1
    31   25   26 1
    32   26   27 1
    33   27   28 1
    34   28   29 1
    35    1   31 1
    36    1   32 1
    37    1   33 1
    38    3   34 1
    39    4   35 1
    40    7   36 1
    41    8   37 1
    42   17   38 1
    43   19   39 1
    44   20   40 1
    45   21   41 1
    46   22   42 1
    47   25   43 1
    48   25   44 1
    49   26   45 1
    50   26   46 1
    51   28   47 1
    52   28   48 1
    53   29   49 1
    54   29   50 1
    55   30   51 1
    56   30   52 1
@<TRIPOS>MOLECULE
ZINC01356202
 31 32 0 0 0
SMALL
NO_CHARGES


@<TRIPOS>ATOM
      1 C           2.295    -7.091    -3.360  C    
      2 C           1.202    -6.401    -2.617  C    
      3 C           0.444    -7.164    -1.692  C    
      4 C          -0.630    -6.598    -0.988  C    
      5 C          -0.974    -5.257    -1.203  C    
      6 C          -0.238    -4.484    -2.115  C    
      7 C           0.862    -5.026    -2.833  C    
      8 C           1.558    -4.188    -3.712  C    
      9 N           2.833    -4.214    -3.835  N    
     10 N           3.326    -3.391    -4.644  N    
     11 C           2.402    -2.622    -5.234  C    
     12 S           0.808    -3.003    -4.697  S    
     13 N           2.613    -1.642    -6.142  N    
     14 C           3.773    -1.236    -6.640  C    
     15 O           4.847    -1.734    -6.324  O    
     16 C           3.782    -0.219    -7.536  C    
     17 C           4.022    -0.476    -8.834  C    
     18 C           3.545     1.136    -7.050  C    
     19 H           2.159    -6.951    -4.434  H    
     20 H           2.322    -8.166    -3.171  H    
     21 H           3.262    -6.682    -3.062  H    
     22 H           0.666    -8.148    -1.522  H    
     23 H          -1.164    -7.163    -0.323  H    
     24 H          -1.756    -4.842    -0.690  H    
     25 H          -0.508    -3.503    -2.227  H    
     26 H           1.821    -1.180    -6.461  H    
     27 H           4.040     0.254    -9.506  H    
     28 H           4.184    -1.403    -9.158  H    
     29 H           2.563     1.199    -6.572  H    
     30 H           3.576     1.880    -7.849  H    
     31 H           4.308     1.404    -6.315  H    
@<TRIPOS>BOND
     1    1    2 1
     2    2    7 ar
     3    2    3 ar
     4    3    4 ar
     5    4    5 ar
     6    5    6 ar
     7    6    7 ar
     8    7    8 1
     9    8   12 1
    10    8    9 2
    11    9   10 1
    12   10   11 2
    13   11   12 1
    14   11   13 1
    15   13   14 1
    16   14   15 2
    17   14   16 1
    18   16   17 2
    19   16   18 1
    20    1   19 1
    21    1   20 1
    22    1   21 1
    23    3   22 1
    24    4   23 1
    25    5   24 1
    26    6   25 1
    27   13   26 1
    28   17   27 1
    29   17   28 1
    30   18   29 1
    31   18   30 1
    32   18   31 1
@<TRIPOS>MOLECULE
ZINC01360226
 54 57 0 0 0
SMALL
NO_CHARGES


@<TRIPOS>ATOM
      1 C           3.485    -2.770     3.183  C    
      2 C           3.781    -3.517     1.926  C    
      3 C           2.721    -4.175     1.251  C    
      4 C           2.938    -4.884     0.055  C    
      5 C           1.908    -5.550    -0.636  C    
      6 C           2.155    -6.216    -1.860  C    
      7 C           3.502    -6.309    -2.326  C    
      8 N           4.461    -5.672    -1.600  N    
      9 C           4.245    -4.962    -0.470  C    
     10 C           5.311    -4.322     0.189  C    
     11 C           5.097    -3.593     1.382  C    
     12 C           6.254    -2.922     2.039  C    
     13 N           3.927    -6.929    -3.479  N    
     14 C           3.122    -7.004    -4.685  C    
     15 C           2.999    -8.477    -5.154  C    
     16 N           4.333    -9.039    -5.312  N    
     17 C           5.151    -8.971    -4.108  C    
     18 C           5.261    -7.499    -3.616  C    
     19 C           4.749    -9.588    -6.471  C    
     20 O           3.974    -9.715    -7.413  O    
     21 C           6.032   -10.049    -6.750  C    
     22 C           7.124    -9.146    -6.722  C    
     23 C           8.423    -9.582    -7.050  C    
     24 C           8.638   -10.914    -7.447  C    
     25 C           7.560   -11.813    -7.514  C    
     26 C           6.263   -11.393    -7.149  C    
     27 O           5.219   -12.278    -7.235  O    
     28 C           5.142   -13.192    -6.125  C    
     29 C           1.244    -7.080    -2.232  C    
     30 N           0.471    -7.897    -2.483  N    
     31 H           4.074    -3.185     4.005  H    
     32 H           2.426    -2.825     3.468  H    
     33 H           3.740    -1.715     3.049  H    
     34 H           1.776    -4.147     1.635  H    
     35 H           0.965    -5.545    -0.237  H    
     36 H           6.243    -4.390    -0.211  H    
     37 H           6.078    -1.841     2.092  H    
     38 H           7.190    -3.084     1.496  H    
     39 H           6.380    -3.318     3.051  H    
     40 H           2.121    -6.569    -4.599  H    
     41 H           3.628    -6.439    -5.477  H    
     42 H           2.448    -9.054    -4.398  H    
     43 H           2.395    -8.485    -6.065  H    
     44 H           4.671    -9.564    -3.320  H    
     45 H           6.159    -9.370    -4.223  H    
     46 H           5.837    -6.914    -4.338  H    
     47 H           5.812    -7.502    -2.671  H    
     48 H           6.988    -8.164    -6.460  H    
     49 H           9.210    -8.933    -7.020  H    
     50 H           9.576   -11.227    -7.704  H    
     51 H           7.720   -12.770    -7.824  H    
     52 H           5.964   -13.914    -6.156  H    
     53 H           4.208   -13.750    -6.210  H    
     54 H           5.143   -12.665    -5.163  H    
@<TRIPOS>BOND
     1    1    2 1
     2    2   11 ar
     3    2    3 ar
     4    3    4 ar
     5    4    9 ar
     6    4    5 ar
     7    5    6 ar
     8    6    7 ar
     9    6   29 1
    10    7    8 ar
    11    7   13 1
    12    8    9 ar
    13    9   10 ar
    14   10   11 ar
    15   11   12 1
    16   13   18 1
    17   13   14 1
    18   14   15 1
    19   15   16 1
    20   16   17 1
    21   16   19 1
    22   17   18 1
    23   19   20 2
    24   19   21 1
    25   21   26 ar
    26   21   22 ar
    27   22   23 ar
    28   23   24 ar
    29   24   25 ar
    30   25   26 ar
    31   26   27 1
    32   27   28 1
    33   29   30 3
    34    1   31 1
    35    1   32 1
    36    1   33 1
    37    3   34 1
    38    5   35 1
    39   10   36 1
    40   12   37 1
    41   12   38 1
    42   12   39 1
    43   14   40 1
    44   14   41 1
    45   15   42 1
    46   15   43 1
    47   17   44 1
    48   17   45 1
    49   18   46 1
    50   18   47 1
    51   22   48 1
    52   23   49 1
    53   24   50 1
    54   25   51 1
    55   28   52 1
    56   28   53 1
    57   28   54 1
@<TRIPOS>MOLECULE
ZINC01361098
 41 44 0 0 0
SMALL
NO_CHARGES


@<TRIPOS>ATOM
      1 C           2.518    -1.932     0.428  C    
      2 C           3.603    -1.537    -0.378  C    
      3 C           3.508    -1.627    -1.779  C    
      4 C           2.330    -2.117    -2.395  C    
      5 C           1.247    -2.511    -1.572  C    
      6 C           1.339    -2.417    -0.169  C    
      7 C           2.241    -2.191    -3.877  C    
      8 N           2.265    -0.875    -4.462  N    
      9 C           3.274    -0.376    -5.212  C    
     10 C           4.519    -0.830    -5.689  C    
     11 C           5.204     0.130    -6.448  C    
     12 S           4.241     1.561    -6.523  S    
     13 C           2.964     0.921    -5.570  C    
     14 C           1.735     1.239    -5.025  C    
     15 C           1.317     0.103    -4.321  C    
     16 C           0.103     0.029    -3.647  C    
     17 O          -0.598    -0.916    -3.998  O    
     18 N          -0.331     0.884    -2.702  N    
     19 C           0.518     1.883    -2.070  C    
     20 C           0.569     1.621    -0.543  C    
     21 O          -0.759     1.545     0.012  O    
     22 C          -1.595     0.558    -0.626  C    
     23 C          -1.680     0.813    -2.153  C    
     24 H           2.587    -1.865     1.448  H    
     25 H           4.461    -1.184     0.057  H    
     26 H           4.307    -1.336    -2.350  H    
     27 H           0.379    -2.863    -1.988  H    
     28 H           0.550    -2.699     0.416  H    
     29 H           3.076    -2.798    -4.228  H    
     30 H           1.334    -2.704    -4.201  H    
     31 H           4.891    -1.761    -5.495  H    
     32 H           6.122     0.008    -6.878  H    
     33 H           1.233     2.123    -5.125  H    
     34 H           1.550     1.895    -2.426  H    
     35 H           0.098     2.877    -2.248  H    
     36 H           1.111     0.692    -0.343  H    
     37 H           1.101     2.435    -0.047  H    
     38 H          -1.204    -0.449    -0.439  H    
     39 H          -2.595     0.622    -0.190  H    
     40 H          -2.184     1.768    -2.330  H    
     41 H          -2.309     0.037    -2.600  H    
@<TRIPOS>BOND
     1    1    6 ar
     2    1    2 ar
     3    2    3 ar
     4    3    4 ar
     5    4    5 ar
     6    4    7 1
     7    5    6 ar
     8    7    8 1
     9    8   15 1
    10    8    9 1
    11    9   13 2
    12    9   10 1
    13   10   11 2
    14   11   12 1
    15   12   13 1
    16   13   14 1
    17   14   15 2
    18   15   16 1
    19   16   17 2
    20   16   18 1
    21   18   23 1
    22   18   19 1
    23   19   20 1
    24   20   21 1
    25   21   22 1
    26   22   23 1
    27    1   24 1
    28    2   25 1
    29    3   26 1
    30    5   27 1
    31    6   28 1
    32    7   29 1
    33    7   30 1
    34   10   31 1
    35   11   32 1
    36   14   33 1
    37   19   34 1
    38   19   35 1
    39   20   36 1
    40   20   37 1
    41   22   38 1
    42   22   39 1
    43   23   40 1
    44   23   41 1
@<TRIPOS>MOLECULE
ZINC00040536
 28 29 0 0 0
SMALL
NO_CHARGES


@<TRIPOS>ATOM
      1 C           4.431   -11.477     0.697  C    
      2 C           5.784   -11.204     0.978  C    
      3 N           6.226    -9.916     0.990  N    
      4 C           5.393    -8.872     0.742  C    
      5 N           4.087    -9.119     0.455  N    
      6 C           3.588   -10.382     0.428  C    
      7 S           6.062    -7.266     0.758  S    
      8 C           4.572    -6.273     1.028  C    
      9 C           4.911    -4.866     1.145  C    
     10 O           5.409    -4.318     0.167  O    
     11 N           4.631    -4.222     2.275  N    
     12 C           4.789    -2.908     2.646  C    
     13 C           5.448    -1.908     1.883  C    
     14 C           5.539    -0.581     2.341  C    
     15 C           4.979    -0.223     3.579  C    
     16 C           4.333    -1.199     4.359  C    
     17 C           4.238    -2.529     3.898  C    
     18 F           3.622    -3.394     4.661  F    
     19 F           5.058     1.010     4.003  F    
     20 H           4.077   -12.437     0.686  H    
     21 H           6.439   -11.965     1.168  H    
     22 H           2.601   -10.534     0.205  H    
     23 H           3.886    -6.399     0.185  H    
     24 H           4.068    -6.630     1.931  H    
     25 H           4.218    -4.777     2.957  H    
     26 H           5.878    -2.127     0.986  H    
     27 H           6.013     0.124     1.768  H    
     28 H           3.930    -0.937     5.263  H    
@<TRIPOS>BOND
     1    1    6 ar
     2    1    2 ar
     3    2    3 ar
     4    3    4 ar
     5    4    5 ar
     6    4    7 1
     7    5    6 ar
     8    7    8 1
     9    8    9 1
    10    9   10 2
    11    9   11 1
    12   11   12 1
    13   12   17 ar
    14   12   13 ar
    15   13   14 ar
    16   14   15 ar
    17   15   16 ar
    18   15   19 1
    19   16   17 ar
    20   17   18 1
    21    1   20 1
    22    2   21 1
    23    6   22 1
    24    8   23 1
    25    8   24 1
    26   11   25 1
    27   13   26 1
    28   14   27 1
    29   16   28 1
@<TRIPOS>MOLECULE
ZINC00040637
 30 31 0 0 0
SMALL
NO_CHARGES


@<TRIPOS>ATOM
      1 C           2.195    14.322    10.829  C    
      2 C           1.330    13.662    11.717  C    
      3 C           0.487    12.631    11.252  C    
      4 C           0.512    12.237     9.889  C    
      5 C           1.374    12.930     9.000  C    
      6 C           2.211    13.963     9.467  C    
      7 C          -0.337    11.222     9.455  C    
      8 N          -0.059    10.297     8.609  N    
      9 N           1.039    10.058     8.012  N    
     10 C           1.223     9.029     7.194  C    
     11 O           0.293     8.265     6.962  O    
     12 C           2.469     8.806     6.694  C    
     13 C           2.791     8.037     5.638  C    
     14 N           4.009     7.876     5.245  N    
     15 N           4.082     7.132     4.237  N    
     16 C           2.887     6.740     3.875  C    
     17 O           2.652     6.000     2.931  O    
     18 C           1.906     7.294     4.760  C    
     19 H           2.804    15.074    11.169  H    
     20 H           1.309    13.927    12.707  H    
     21 H          -0.134    12.159    11.919  H    
     22 H           1.380    12.714     7.998  H    
     23 H           2.823    14.459     8.817  H    
     24 H          -1.231    11.148     9.881  H    
     25 H           1.799    10.629     8.202  H    
     26 H           3.226     9.259     7.161  H    
     27 H           4.752     8.262     5.663  H    
     28 H           4.907     6.878     3.794  H    
     29 H           1.369     6.501     5.291  H    
     30 H           1.215     7.953     4.228  H    
@<TRIPOS>BOND
     1    1    6 ar
     2    1    2 ar
     3    2    3 ar
     4    3    4 ar
     5    4    5 ar
     6    4    7 1
     7    5    6 ar
     8    7    8 2
     9    8    9 1
    10    9   10 1
    11   10   11 2
    12   10   12 1
    13   12   13 2
    14   13   18 1
    15   13   14 1
    16   14   15 1
    17   15   16 1
    18   16   17 2
    19   16   18 1
    20    1   19 1
    21    2   20 1
    22    3   21 1
    23    5   22 1
    24    6   23 1
    25    7   24 1
    26    9   25 1
    27   12   26 1
    28   14   27 1
    29   15   28 1
    30   18   29 1
    31   18   30 1
@<TRIPOS>MOLECULE
ZINC00046680
 47 49 0 0 0
SMALL
NO_CHARGES


@<TRIPOS>ATOM
      1 C           7.005   -11.357    -1.961  C    
      2 C           6.213   -10.242    -1.394  C    
      3 C           4.892   -10.432    -0.923  C    
      4 C           4.157    -9.352    -0.394  C    
      5 C           4.727    -8.059    -0.315  C    
      6 C           6.052    -7.873    -0.779  C    
      7 C           6.782    -8.950    -1.320  C    
      8 C           3.964    -6.903     0.233  C    
      9 C           4.113    -5.040     1.878  C    
     10 C           4.762    -4.569     3.206  C    
     11 N           4.415    -5.519     4.301  N    
     12 C           4.869    -6.906     3.996  C    
     13 C           4.226    -7.387     2.671  C    
     14 N           4.897    -5.107     5.479  N    
     15 C           4.225    -4.822     6.571  C    
     16 C           2.903    -5.054     6.688  C    
     17 C           4.972    -4.293     7.628  C    
     18 C           4.572    -3.940     8.925  C    
     19 C           5.681    -3.471     9.609  C    
     20 C           6.746    -3.543     8.726  C    
     21 O           6.306    -4.038     7.546  O    
     22 N           4.522    -6.442     1.544  N    
     23 H           7.274   -11.127    -2.994  H    
     24 H           6.450   -12.298    -1.951  H    
     25 H           7.918   -11.490    -1.377  H    
     26 H           4.454   -11.357    -0.959  H    
     27 H           3.205    -9.519    -0.056  H    
     28 H           6.490    -6.948    -0.734  H    
     29 H           7.734    -8.782    -1.661  H    
     30 H           4.028    -6.104    -0.514  H    
     31 H           2.901    -7.152     0.343  H    
     32 H           3.022    -4.971     1.965  H    
     33 H           4.435    -4.360     1.081  H    
     34 H           5.848    -4.500     3.074  H    
     35 H           4.381    -3.570     3.444  H    
     36 H           3.398    -5.545     4.353  H    
     37 H           5.961    -6.954     3.911  H    
     38 H           4.557    -7.582     4.799  H    
     39 H           4.621    -8.381     2.442  H    
     40 H           3.144    -7.478     2.815  H    
     41 H           5.831    -5.011     5.528  H    
     42 H           2.406    -4.835     7.517  H    
     43 H           2.381    -5.461     5.953  H    
     44 H           3.634    -4.008     9.325  H    
     45 H           5.710    -3.139    10.575  H    
     46 H           7.709    -3.268     8.935  H    
     47 H           5.540    -6.424     1.441  H    
@<TRIPOS>BOND
     1    1    2 1
     2    2    7 ar
     3    2    3 ar
     4    3    4 ar
     5    4    5 ar
     6    5    6 ar
     7    5    8 1
     8    6    7 ar
     9    8   22 1
    10    9   10 1
    11    9   22 1
    12   10   11 1
    13   11   12 1
    14   11   14 1
    15   12   13 1
    16   13   22 1
    17   14   15 1
    18   15   17 1
    19   15   16 2
    20   17   21 1
    21   17   18 2
    22   18   19 1
    23   19   20 2
    24   20   21 1
    25    1   23 1
    26    1   24 1
    27    1   25 1
    28    3   26 1
    29    4   27 1
    30    6   28 1
    31    7   29 1
    32    8   30 1
    33    8   31 1
    34    9   32 1
    35    9   33 1
    36   10   34 1
    37   10   35 1
    38   11   36 1
    39   12   37 1
    40   12   38 1
    41   13   39 1
    42   13   40 1
    43   14   41 1
    44   16   42 1
    45   16   43 1
    46   18   44 1
    47   19   45 1
    48   20   46 1
    49   22   47 1
@<TRIPOS>MOLECULE
ZINC00052456
 48 50 0 0 0
SMALL
NO_CHARGES


@<TRIPOS>ATOM
      1 C           6.061   -11.297    -0.200  C    
      2 C           6.720   -10.994     1.002  C    
      3 C           6.385    -9.829     1.713  C    
      4 C           5.385    -8.924     1.257  C    
      5 C           4.738    -9.264     0.037  C    
      6 C           5.068   -10.428    -0.680  C    
      7 C           5.047    -7.690     2.070  C    
      8 C           3.873    -6.786     1.503  C    
      9 C           3.468    -5.539     2.354  C    
     10 C           2.496    -3.248     2.234  C    
     11 C           1.552    -2.307     1.444  C    
     12 C           0.157    -4.242     0.793  C    
     13 C           1.098    -5.190     1.577  C    
     14 C           6.194    -6.907     1.992  C    
     15 N           7.145    -6.257     1.926  N    
     16 C           4.672    -8.117     3.477  C    
     17 C           3.588    -9.015     3.666  C    
     18 C           3.186    -9.437     4.945  C    
     19 C           3.860    -8.970     6.084  C    
     20 C           4.936    -8.080     5.934  C    
     21 C           5.334    -7.662     4.651  C    
     22 N           2.492    -4.634     1.657  N    
     23 N           0.191    -2.880     1.366  N    
     24 H           6.299   -12.139    -0.719  H    
     25 H           7.443   -11.623     1.356  H    
     26 H           6.890    -9.642     2.585  H    
     27 H           4.011    -8.670    -0.363  H    
     28 H           4.586   -10.645    -1.554  H    
     29 H           4.131    -6.426     0.501  H    
     30 H           2.988    -7.412     1.390  H    
     31 H           3.062    -5.861     3.318  H    
     32 H           4.387    -4.989     2.565  H    
     33 H           3.500    -2.821     2.185  H    
     34 H           2.188    -3.268     3.284  H    
     35 H           1.498    -1.339     1.945  H    
     36 H           1.947    -2.145     0.436  H    
     37 H           0.454    -4.211    -0.260  H    
     38 H          -0.866    -4.618     0.845  H    
     39 H           0.689    -5.347     2.581  H    
     40 H           1.089    -6.149     1.059  H    
     41 H           3.073    -9.381     2.860  H    
     42 H           2.402   -10.085     5.049  H    
     43 H           3.572    -9.273     7.011  H    
     44 H           5.427    -7.735     6.760  H    
     45 H           6.115    -7.006     4.595  H    
     46 H           2.823    -4.535     0.694  H    
     47 H          -0.198    -2.916     2.309  H    
     48 H          -0.394    -2.265     0.796  H    
@<TRIPOS>BOND
     1    1    6 ar
     2    1    2 ar
     3    2    3 ar
     4    3    4 ar
     5    4    5 ar
     6    4    7 1
     7    5    6 ar
     8    7    8 1
     9    7   14 1
    10    7   16 1
    11    8    9 1
    12    9   22 1
    13   10   11 1
    14   10   22 1
    15   11   23 1
    16   12   13 1
    17   12   23 1
    18   13   22 1
    19   14   15 3
    20   16   21 ar
    21   16   17 ar
    22   17   18 ar
    23   18   19 ar
    24   19   20 ar
    25   20   21 ar
    26    1   24 1
    27    2   25 1
    28    3   26 1
    29    5   27 1
    30    6   28 1
    31    8   29 1
    32    8   30 1
    33    9   31 1
    34    9   32 1
    35   10   33 1
    36   10   34 1
    37   11   35 1
    38   11   36 1
    39   12   37 1
    40   12   38 1
    41   13   39 1
    42   13   40 1
    43   17   41 1
    44   18   42 1
    45   19   43 1
    46   20   44 1
    47   21   45 1
    48   22   46 1
    49   23   47 1
    50   23   48 1
@<TRIPOS>MOLECULE
ZINC00056823
 37 38 0 0 0
SMALL
NO_CHARGES


@<TRIPOS>ATOM
      1 C           4.396    -9.765     0.464  C    
      2 C           5.555    -8.812     0.118  C    
      3 O           5.030    -7.638    -0.508  O    
      4 C           5.754    -6.588    -0.976  C    
      5 O           7.104    -6.577    -0.871  O    
      6 C           5.058    -5.426    -1.581  C    
      7 C           4.139    -5.819    -2.758  C    
      8 C           2.755    -6.065    -2.121  C    
      9 C           2.823    -5.398    -0.729  C    
     10 C           4.651    -4.338     0.671  C    
     11 C           3.827    -3.290     1.329  C    
     12 C           3.111    -3.550     2.526  C    
     13 C           2.320    -2.548     3.123  C    
     14 C           2.244    -1.269     2.538  C    
     15 C           2.964    -0.994     1.360  C    
     16 C           3.751    -1.995     0.761  C    
     17 N           4.128    -4.688    -0.683  N    
     18 H           3.700    -9.282     1.160  H    
     19 H           4.787   -10.674     0.930  H    
     20 H           3.851   -10.041    -0.445  H    
     21 H           6.081    -8.530     1.035  H    
     22 H           6.254    -9.318    -0.554  H    
     23 H           5.817    -4.719    -1.937  H    
     24 H           4.074    -4.978    -3.458  H    
     25 H           4.506    -6.695    -3.302  H    
     26 H           1.968    -5.618    -2.733  H    
     27 H           2.565    -7.139    -2.027  H    
     28 H           2.002    -4.680    -0.607  H    
     29 H           2.749    -6.155     0.058  H    
     30 H           5.661    -3.934     0.570  H    
     31 H           4.714    -5.237     1.294  H    
     32 H           3.150    -4.477     2.962  H    
     33 H           1.797    -2.749     3.981  H    
     34 H           1.670    -0.542     2.969  H    
     35 H           2.914    -0.063     0.936  H    
     36 H           4.263    -1.779    -0.098  H    
     37 H           3.960    -3.793    -1.147  H    
@<TRIPOS>BOND
     1    1    2 1
     2    2    3 1
     3    3    4 1
     4    4    5 2
     5    4    6 1
     6    6    7 1
     7    6   17 1
     8    7    8 1
     9    8    9 1
    10    9   17 1
    11   10   11 1
    12   10   17 1
    13   11   16 ar
    14   11   12 ar
    15   12   13 ar
    16   13   14 ar
    17   14   15 ar
    18   15   16 ar
    19    1   18 1
    20    1   19 1
    21    1   20 1
    22    2   21 1
    23    2   22 1
    24    6   23 1
    25    7   24 1
    26    7   25 1
    27    8   26 1
    28    8   27 1
    29    9   28 1
    30    9   29 1
    31   10   30 1
    32   10   31 1
    33   12   32 1
    34   13   33 1
    35   14   34 1
    36   15   35 1
    37   16   36 1
    38   17   37 1
@<TRIPOS>MOLECULE
ZINC00063855
 36 37 0 0 0
SMALL
NO_CHARGES


@<TRIPOS>ATOM
      1 C           6.635   -10.997     1.346  C    
      2 C           5.335   -10.211     1.107  C    
      3 O           5.608    -8.807     1.160  O    
      4 C           4.713    -7.794     1.016  C    
      5 O           3.411    -8.098     0.794  O    
      6 C           5.141    -6.445     1.064  C    
      7 C           6.438    -5.962     1.265  C    
      8 N           6.402    -4.622     1.196  N    
      9 N           5.188    -4.225     0.978  N    
     10 C           4.370    -5.298     0.886  C    
     11 N           3.049    -5.243     0.633  N    
     12 C           4.829    -2.842     0.844  C    
     13 C           4.250    -2.313     2.101  C    
     14 C           5.079    -2.070     3.219  C    
     15 C           4.553    -1.554     4.416  C    
     16 C           3.175    -1.284     4.517  C    
     17 C           2.332    -1.526     3.416  C    
     18 C           2.870    -2.033     2.218  C    
     19 C           7.677    -6.720     1.505  C    
     20 H           7.381   -10.721     0.599  H    
     21 H           6.437   -12.067     1.270  H    
     22 H           7.027   -10.777     2.340  H    
     23 H           4.932   -10.473     0.126  H    
     24 H           4.605   -10.479     1.874  H    
     25 H           2.615    -4.384     0.501  H    
     26 H           2.530    -6.060     0.556  H    
     27 H           5.709    -2.243     0.587  H    
     28 H           4.139    -2.731     0.002  H    
     29 H           6.086    -2.256     3.167  H    
     30 H           5.165    -1.369     5.213  H    
     31 H           2.789    -0.911     5.384  H    
     32 H           1.333    -1.330     3.490  H    
     33 H           2.238    -2.200     1.431  H    
     34 H           7.576    -7.316     2.414  H    
     35 H           8.525    -6.043     1.625  H    
     36 H           7.876    -7.380     0.659  H    
@<TRIPOS>BOND
     1    1    2 1
     2    2    3 1
     3    3    4 1
     4    4    5 2
     5    4    6 1
     6    6   10 2
     7    6    7 1
     8    7    8 2
     9    7   19 1
    10    8    9 1
    11    9   10 1
    12    9   12 1
    13   10   11 1
    14   12   13 1
    15   13   18 ar
    16   13   14 ar
    17   14   15 ar
    18   15   16 ar
    19   16   17 ar
    20   17   18 ar
    21    1   20 1
    22    1   21 1
    23    1   22 1
    24    2   23 1
    25    2   24 1
    26   11   25 1
    27   11   26 1
    28   12   27 1
    29   12   28 1
    30   14   29 1
    31   15   30 1
    32   16   31 1
    33   17   32 1
    34   18   33 1
    35   19   34 1
    36   19   35 1
    37   19   36 1
@<TRIPOS>MOLECULE
ZINC00065536
 31 32 0 0 0
SMALL
NO_CHARGES


@<TRIPOS>ATOM
      1 C           7.402    -5.202     0.356  C    
      2 C           6.886    -6.274     1.247  C    
      3 C           7.729    -7.348     1.609  C    
      4 C           7.270    -8.374     2.451  C    
      5 C           5.953    -8.365     2.967  C    
      6 C           5.115    -7.283     2.599  C    
      7 C           5.558    -6.241     1.749  C    
      8 N           4.766    -5.196     1.397  N    
      9 C           3.523    -4.841     1.664  C    
     10 C           2.959    -3.672     1.160  C    
     11 C           3.696    -2.751     0.372  C    
     12 C           3.099    -1.573    -0.114  C    
     13 C           1.751    -1.289     0.177  C    
     14 C           1.003    -2.195     0.950  C    
     15 C           1.601    -3.371     1.439  C    
     16 O           1.161    -0.158    -0.284  O    
     17 N           5.517    -9.362     3.792  N    
     18 O           4.411    -9.377     4.267  O    
     19 O           6.273   -10.368     4.138  O    
     20 H           6.792    -5.149    -0.547  H    
     21 H           8.437    -5.372     0.053  H    
     22 H           7.355    -4.242     0.871  H    
     23 H           8.692    -7.393     1.264  H    
     24 H           7.917    -9.129     2.689  H    
     25 H           4.162    -7.257     2.961  H    
     26 H           2.971    -5.430     2.243  H    
     27 H           4.678    -2.925     0.142  H    
     28 H           3.650    -0.921    -0.679  H    
     29 H           0.023    -1.998     1.160  H    
     30 H           1.030    -4.008     2.000  H    
     31 H           1.879     0.365    -0.705  H    
@<TRIPOS>BOND
     1    1    2 1
     2    2    7 ar
     3    2    3 ar
     4    3    4 ar
     5    4    5 ar
     6    5    6 ar
     7    5   17 1
     8    6    7 ar
     9    7    8 1
    10    8    9 2
    11    9   10 1
    12   10   15 ar
    13   10   11 ar
    14   11   12 ar
    15   12   13 ar
    16   13   14 ar
    17   13   16 1
    18   14   15 ar
    19   17   18 2
    20   17   19 1
    21    1   20 1
    22    1   21 1
    23    1   22 1
    24    3   23 1
    25    4   24 1
    26    6   25 1
    27    9   26 1
    28   11   27 1
    29   12   28 1
    30   14   29 1
    31   15   30 1
    32   16   31 1
@<TRIPOS>MOLECULE
ZINC00071149
 43 45 0 0 0
SMALL
NO_CHARGES


@<TRIPOS>ATOM
      1 C           2.808    11.581    11.301  C    
      2 C           1.556    11.933    10.467  C    
      3 C           1.536    13.420    10.050  C    
      4 O           1.546    11.128     9.276  O    
      5 C           0.647    10.197     8.874  C    
      6 O          -0.384     9.861     9.685  O    
      7 C           0.862     9.484     7.665  C    
      8 C           0.641     8.086     7.678  C    
      9 C           0.906     7.295     6.538  C    
     10 N           1.377     7.926     5.431  N    
     11 C           1.590     9.260     5.343  C    
     12 C           1.326    10.098     6.463  C    
     13 C           1.512    11.496     6.292  C    
     14 C           1.980    12.027     5.075  C    
     15 C           2.258    11.174     3.994  C    
     16 C           2.060     9.790     4.125  C    
     17 C           0.710     5.884     6.493  C    
     18 C          -0.339     5.253     7.209  C    
     19 C          -0.541     3.864     7.131  C    
     20 C           0.297     3.070     6.326  C    
     21 C           1.352     3.679     5.619  C    
     22 C           1.551     5.068     5.695  C    
     23 O           0.110     1.718     6.274  O    
     24 C          -0.712     1.303     5.168  C    
     25 H           3.716    11.749    10.723  H    
     26 H           2.773    10.532    11.594  H    
     27 H           2.845    12.191    12.206  H    
     28 H           0.671    11.740    11.079  H    
     29 H           1.534    14.061    10.935  H    
     30 H           0.638    13.630     9.467  H    
     31 H           2.408    13.659     9.440  H    
     32 H           0.335     7.629     8.542  H    
     33 H           1.291    12.154     7.041  H    
     34 H           2.108    13.036     4.974  H    
     35 H           2.595    11.561     3.109  H    
     36 H           2.253     9.175     3.331  H    
     37 H          -0.988     5.800     7.777  H    
     38 H          -1.305     3.429     7.656  H    
     39 H           1.976     3.111     5.043  H    
     40 H           2.328     5.477     5.168  H    
     41 H          -1.700     1.769     5.206  H    
     42 H          -0.847     0.223     5.223  H    
     43 H          -0.235     1.536     4.217  H    
@<TRIPOS>BOND
     1    1    2 1
     2    2    3 1
     3    2    4 1
     4    4    5 1
     5    5    6 2
     6    5    7 1
     7    7   12 ar
     8    7    8 ar
     9    8    9 ar
    10    9   10 ar
    11    9   17 1
    12   10   11 ar
    13   11   16 ar
    14   11   12 ar
    15   12   13 ar
    16   13   14 ar
    17   14   15 ar
    18   15   16 ar
    19   17   22 ar
    20   17   18 ar
    21   18   19 ar
    22   19   20 ar
    23   20   21 ar
    24   20   23 1
    25   21   22 ar
    26   23   24 1
    27    1   25 1
    28    1   26 1
    29    1   27 1
    30    2   28 1
    31    3   29 1
    32    3   30 1
    33    3   31 1
    34    8   32 1
    35   13   33 1
    36   14   34 1
    37   15   35 1
    38   16   36 1
    39   18   37 1
    40   19   38 1
    41   21   39 1
    42   22   40 1
    43   24   41 1
    44   24   42 1
    45   24   43 1
@<TRIPOS>MOLECULE
ZINC00075354
 26 26 0 0 0
SMALL
NO_CHARGES


@<TRIPOS>ATOM
      1 C           4.464    -9.799    -0.075  C    
      2 O           3.778    -8.951     0.864  O    
      3 C           4.122    -7.633     0.744  C    
      4 C           5.184    -7.108     1.498  C    
      5 C           5.518    -5.749     1.388  C    
      6 C           4.785    -4.895     0.540  C    
      7 C           3.682    -5.397    -0.209  C    
      8 C           3.373    -6.778    -0.087  C    
      9 C           2.904    -4.601    -1.054  C    
     10 O           2.431    -5.089    -2.077  O    
     11 N           2.607    -3.349    -0.739  N    
     12 N           1.901    -2.571    -1.460  N    
     13 C           1.632    -1.342    -1.166  C    
     14 S           2.413    -0.459     0.065  S    
     15 N           0.783    -0.724    -1.892  N    
     16 Br          5.427    -3.146     0.404  Br   
     17 H           4.234    -9.521    -1.107  H    
     18 H           4.126   -10.824     0.083  H    
     19 H           5.546    -9.769     0.079  H    
     20 H           5.724    -7.717     2.117  H    
     21 H           6.310    -5.386     1.920  H    
     22 H           2.584    -7.180    -0.600  H    
     23 H           2.949    -3.002     0.100  H    
     24 H           1.532    -2.919    -2.247  H    
     25 H           0.592     0.177    -1.730  H    
     26 H           0.345    -1.170    -2.588  H    
@<TRIPOS>BOND
     1    1    2 1
     2    2    3 1
     3    3    8 ar
     4    3    4 ar
     5    4    5 ar
     6    5    6 ar
     7    6    7 ar
     8    6   16 1
     9    7    8 ar
    10    7    9 1
    11    9   10 2
    12    9   11 1
    13   11   12 1
    14   12   13 1
    15   13   14 2
    16   13   15 1
    17    1   17 1
    18    1   18 1
    19    1   19 1
    20    4   20 1
    21    5   21 1
    22    8   22 1
    23   11   23 1
    24   12   24 1
    25   15   25 1
    26   15   26 1
@<TRIPOS>MOLECULE
ZINC00079176
 31 32 0 0 0
SMALL
NO_CHARGES


@<TRIPOS>ATOM
      1 C          -5.762     0.581    -3.320  C    
      2 C          -4.706     0.715    -4.239  C    
      3 C          -3.467     1.090    -3.690  C    
      4 S          -3.738     1.269    -1.994  S    
      5 C          -5.405     0.850    -1.994  C    
      6 C          -2.302     1.285    -4.430  C    
      7 C          -1.053     1.538    -3.995  C    
      8 C          -0.644     1.595    -2.717  C    
      9 O          -0.526     0.540    -2.107  O    
     10 N          -0.328     2.783    -2.221  N    
     11 C           0.146     3.122    -1.014  C    
     12 S           0.504     2.041     0.257  S    
     13 N           0.362     4.389    -0.802  N    
     14 C           1.526     5.023    -1.245  C    
     15 C           1.439     6.456    -0.690  C    
     16 C          -0.059     6.647    -0.404  C    
     17 C          -0.561     5.214    -0.153  C    
     18 H          -6.713     0.321    -3.596  H    
     19 H          -4.843     0.552    -5.233  H    
     20 H          -6.023     0.816    -1.184  H    
     21 H          -2.406     1.236    -5.418  H    
     22 H          -0.347     1.686    -4.681  H    
     23 H          -0.457     3.528    -2.830  H    
     24 H           2.425     4.526    -0.861  H    
     25 H           1.562     5.038    -2.341  H    
     26 H           2.008     6.534     0.245  H    
     27 H           1.814     7.194    -1.407  H    
     28 H          -0.229     7.294     0.458  H    
     29 H          -0.554     7.078    -1.283  H    
     30 H          -1.573     5.102    -0.553  H    
     31 H          -0.571     4.991     0.922  H    
@<TRIPOS>BOND
     1    1    5 2
     2    1    2 1
     3    2    3 2
     4    3    4 1
     5    3    6 1
     6    4    5 1
     7    6    7 2
     8    7    8 1
     9    8    9 2
    10    8   10 1
    11   10   11 1
    12   11   12 2
    13   11   13 1
    14   13   17 1
    15   13   14 1
    16   14   15 1
    17   15   16 1
    18   16   17 1
    19    1   18 1
    20    2   19 1
    21    5   20 1
    22    6   21 1
    23    7   22 1
    24   10   23 1
    25   14   24 1
    26   14   25 1
    27   15   26 1
    28   15   27 1
    29   16   28 1
    30   16   29 1
    31   17   30 1
    32   17   31 1
@<TRIPOS>MOLECULE
ZINC00102929
 28 29 0 0 0
SMALL
NO_CHARGES


@<TRIPOS>ATOM
      1 C           6.051    -9.104     0.009  C    
      2 C           4.656    -9.303     0.026  C    
      3 C           3.819    -8.189     0.199  C    
      4 C           4.316    -6.883     0.362  C    
      5 C           5.719    -6.699     0.345  C    
      6 C           6.583    -7.804     0.167  C    
      7 Cl          8.261    -7.575     0.136  Cl   
      8 C           3.305    -5.896     0.513  C    
      9 C           2.005    -6.424     0.470  C    
     10 S           2.103    -8.124     0.245  S    
     11 C           3.556    -4.446     0.699  C    
     12 N           4.061    -4.193     2.013  N    
     13 C           4.382    -3.000     2.500  C    
     14 O           4.260    -2.002     1.799  O    
     15 C           4.828    -2.908     3.784  C    
     16 C           5.286    -1.782     4.367  C    
     17 C           5.747    -1.704     5.670  C    
     18 O           5.779    -2.771     6.502  O    
     19 O           6.193    -0.522     6.149  O    
     20 H           6.676    -9.902    -0.121  H    
     21 H           4.270   -10.243    -0.091  H    
     22 H           6.115    -5.762     0.455  H    
     23 H           1.136    -5.898     0.565  H    
     24 H           4.274    -4.104    -0.054  H    
     25 H           2.633    -3.875     0.565  H    
     26 H           4.157    -4.962     2.604  H    
     27 H           4.819    -3.744     4.333  H    
     28 H           5.307    -0.938     3.836  H    
@<TRIPOS>BOND
     1    1    6 ar
     2    1    2 ar
     3    2    3 ar
     4    3   10 1
     5    3    4 ar
     6    4    5 ar
     7    4    8 1
     8    5    6 ar
     9    6    7 1
    10    8    9 2
    11    8   11 1
    12    9   10 1
    13   11   12 1
    14   12   13 1
    15   13   14 2
    16   13   15 1
    17   15   16 2
    18   16   17 1
    19   17   18 2
    20   17   19 1
    21    1   20 1
    22    2   21 1
    23    5   22 1
    24    9   23 1
    25   11   24 1
    26   11   25 1
    27   12   26 1
    28   15   27 1
    29   16   28 1
@<TRIPOS>MOLECULE
ZINC00106515
 36 38 0 0 0
SMALL
NO_CHARGES


@<TRIPOS>ATOM
      1 C           6.571    -5.482     2.232  C    
      2 O           6.193    -4.254     2.864  O    
      3 C           5.066    -3.528     2.631  C    
      4 O           4.184    -3.978     1.704  O    
      5 C           4.818    -2.325     3.350  C    
      6 C           5.749    -1.849     4.317  C    
      7 C           5.515    -0.662     5.040  C    
      8 C           4.336     0.068     4.803  C    
      9 C           3.415    -0.402     3.856  C    
     10 C           3.634    -1.577     3.123  C    
     11 S           2.110     0.709     3.842  S    
     12 C           2.788     1.743     5.046  C    
     13 N           3.980     1.220     5.426  N    
     14 N           2.312     2.886     5.587  N    
     15 C           1.148     3.489     5.368  C    
     16 O           0.318     3.008     4.608  O    
     17 C           0.855     4.692     6.015  C    
     18 C           1.884     5.655     6.195  C    
     19 C           1.633     6.884     6.830  C    
     20 C           0.344     7.177     7.309  C    
     21 C          -0.692     6.242     7.147  C    
     22 C          -0.451     5.009     6.502  C    
     23 N          -1.493     4.155     6.408  N    
     24 H           5.821    -6.254     2.417  H    
     25 H           7.527    -5.812     2.638  H    
     26 H           6.679    -5.331     1.155  H    
     27 H           6.612    -2.367     4.506  H    
     28 H           6.194    -0.332     5.730  H    
     29 H           2.932    -1.876     2.442  H    
     30 H           2.894     3.316     6.232  H    
     31 H           2.830     5.480     5.841  H    
     32 H           2.387     7.569     6.942  H    
     33 H           0.163     8.070     7.777  H    
     34 H          -1.622     6.463     7.514  H    
     35 H          -2.361     4.413     6.762  H    
     36 H          -1.382     3.284     5.998  H    
@<TRIPOS>BOND
     1    1    2 1
     2    2    3 1
     3    3    4 2
     4    3    5 1
     5    5   10 ar
     6    5    6 ar
     7    6    7 ar
     8    7    8 ar
     9    8   13 1
    10    8    9 ar
    11    9   10 ar
    12    9   11 1
    13   11   12 1
    14   12   13 2
    15   12   14 1
    16   14   15 1
    17   15   16 2
    18   15   17 1
    19   17   22 ar
    20   17   18 ar
    21   18   19 ar
    22   19   20 ar
    23   20   21 ar
    24   21   22 ar
    25   22   23 1
    26    1   24 1
    27    1   25 1
    28    1   26 1
    29    6   27 1
    30    7   28 1
    31   10   29 1
    32   14   30 1
    33   18   31 1
    34   19   32 1
    35   20   33 1
    36   21   34 1
    37   23   35 1
    38   23   36 1
@<TRIPOS>MOLECULE
ZINC00108360
 47 49 0 0 0
SMALL
NO_CHARGES


@<TRIPOS>ATOM
      1 C           2.385   -11.981    -3.180  C    
      2 C           2.445   -11.525    -1.703  C    
      3 C           3.736   -10.194    -0.071  C    
      4 C           4.770    -9.057     0.084  C    
      5 N           4.357    -7.817    -0.558  N    
      6 C           3.803    -7.912    -1.882  C    
      7 C           2.782    -9.069    -2.012  C    
      8 C           4.726    -6.624    -0.006  C    
      9 C           4.730    -5.284    -0.436  C    
     10 N           5.297    -4.527     0.525  N    
     11 C           5.555    -5.343     1.557  C    
     12 O           5.214    -6.600     1.247  O    
     13 C           6.101    -5.012     2.862  C    
     14 O           5.020    -5.041     3.804  O    
     15 C           5.252    -4.812     5.138  C    
     16 C           6.535    -4.549     5.683  C    
     17 C           6.706    -4.325     7.058  C    
     18 C           5.590    -4.360     7.909  C    
     19 C           4.311    -4.620     7.380  C    
     20 C           4.126    -4.848     5.996  C    
     21 C           2.763    -5.120     5.466  C    
     22 C           4.395    -4.723    -1.562  C    
     23 N           4.197    -4.369    -2.640  N    
     24 N           3.350   -10.354    -1.502  N    
     25 H           1.991   -11.194    -3.818  H    
     26 H           1.724   -12.841    -3.273  H    
     27 H           3.383   -12.252    -3.529  H    
     28 H           1.438   -11.294    -1.345  H    
     29 H           2.802   -12.383    -1.125  H    
     30 H           4.185   -11.112     0.315  H    
     31 H           2.857    -9.968     0.543  H    
     32 H           4.947    -8.960     1.157  H    
     33 H           5.714    -9.371    -0.368  H    
     34 H           3.270    -7.008    -2.167  H    
     35 H           4.623    -8.070    -2.588  H    
     36 H           1.868    -8.814    -1.463  H    
     37 H           2.522    -9.143    -3.065  H    
     38 H           6.842    -5.774     3.118  H    
     39 H           6.564    -4.027     2.831  H    
     40 H           7.363    -4.515     5.104  H    
     41 H           7.629    -4.139     7.427  H    
     42 H           5.711    -4.199     8.898  H    
     43 H           3.525    -4.639     8.017  H    
     44 H           2.489    -4.362     4.730  H    
     45 H           2.002    -5.114     6.247  H    
     46 H           2.736    -6.098     4.983  H    
     47 H           4.210   -10.544    -2.028  H    
@<TRIPOS>BOND
     1    1    2 1
     2    2   24 1
     3    3    4 1
     4    3   24 1
     5    4    5 1
     6    5    6 1
     7    5    8 1
     8    6    7 1
     9    7   24 1
    10    8   12 1
    11    8    9 2
    12    9   10 1
    13    9   22 1
    14   10   11 2
    15   11   12 1
    16   11   13 1
    17   13   14 1
    18   14   15 1
    19   15   20 ar
    20   15   16 ar
    21   16   17 ar
    22   17   18 ar
    23   18   19 ar
    24   19   20 ar
    25   20   21 1
    26   22   23 3
    27    1   25 1
    28    1   26 1
    29    1   27 1
    30    2   28 1
    31    2   29 1
    32    3   30 1
    33    3   31 1
    34    4   32 1
    35    4   33 1
    36    6   34 1
    37    6   35 1
    38    7   36 1
    39    7   37 1
    40   13   38 1
    41   13   39 1
    42   16   40 1
    43   17   41 1
    44   18   42 1
    45   19   43 1
    46   21   44 1
    47   21   45 1
    48   21   46 1
    49   24   47 1
@<TRIPOS>MOLECULE
ZINC00109843
 40 41 0 0 0
SMALL
NO_CHARGES


@<TRIPOS>ATOM
      1 C           1.044    -7.804     0.867  C    
      2 N           2.430    -8.046     0.678  N    
      3 C           2.922    -9.394     0.673  C    
      4 C           4.188    -9.674    -0.207  C    
      5 C           4.621   -11.165    -0.171  C    
      6 C           4.842   -11.667     1.281  C    
      7 C           3.600   -11.400     2.169  C    
      8 C           3.169    -9.910     2.130  C    
      9 C           3.229    -7.026     0.478  C    
     10 S           4.105    -6.417     1.810  S    
     11 N           3.130    -6.383    -0.649  N    
     12 C           4.077    -5.535    -1.223  C    
     13 C           3.539    -4.916    -2.464  C    
     14 C           2.433    -4.027    -2.394  C    
     15 C           1.928    -3.415    -3.556  C    
     16 C           2.508    -3.681    -4.811  C    
     17 C           3.599    -4.567    -4.897  C    
     18 C           4.110    -5.178    -3.736  C    
     19 H           0.471    -8.268     0.062  H    
     20 H           0.777    -6.742     0.881  H    
     21 H           0.703    -8.225     1.817  H    
     22 H           2.138   -10.032     0.243  H    
     23 H           3.985    -9.391    -1.245  H    
     24 H           5.028    -9.066     0.146  H    
     25 H           3.848   -11.775    -0.652  H    
     26 H           5.545   -11.287    -0.739  H    
     27 H           5.056   -12.740     1.268  H    
     28 H           5.710   -11.159     1.713  H    
     29 H           2.766   -12.021     1.824  H    
     30 H           3.823   -11.685     3.203  H    
     31 H           3.945    -9.309     2.611  H    
     32 H           2.257    -9.807     2.723  H    
     33 H           2.379    -6.578    -1.170  H    
     34 H           4.337    -4.724    -0.538  H    
     35 H           4.986    -6.112    -1.426  H    
     36 H           1.991    -3.820    -1.490  H    
     37 H           1.135    -2.770    -3.489  H    
     38 H           2.139    -3.229    -5.654  H    
     39 H           4.027    -4.763    -5.809  H    
     40 H           4.907    -5.815    -3.821  H    
@<TRIPOS>BOND
     1    1    2 1
     2    2    3 1
     3    2    9 1
     4    3    8 1
     5    3    4 1
     6    4    5 1
     7    5    6 1
     8    6    7 1
     9    7    8 1
    10    9   10 2
    11    9   11 1
    12   11   12 1
    13   12   13 1
    14   13   18 ar
    15   13   14 ar
    16   14   15 ar
    17   15   16 ar
    18   16   17 ar
    19   17   18 ar
    20    1   19 1
    21    1   20 1
    22    1   21 1
    23    3   22 1
    24    4   23 1
    25    4   24 1
    26    5   25 1
    27    5   26 1
    28    6   27 1
    29    6   28 1
    30    7   29 1
    31    7   30 1
    32    8   31 1
    33    8   32 1
    34   11   33 1
    35   12   34 1
    36   12   35 1
    37   14   36 1
    38   15   37 1
    39   16   38 1
    40   17   39 1
    41   18   40 1
@<TRIPOS>MOLECULE
ZINC00112060
 39 41 0 0 0
SMALL
NO_CHARGES


@<TRIPOS>ATOM
      1 C           8.119    -8.557     2.315  C    
      2 C           8.466    -7.853     3.466  C    
      3 C           7.663    -6.707     3.716  C    
      4 C           6.671    -6.457     2.747  C    
      5 S           6.803    -7.726     1.587  S    
      6 C           5.753    -5.416     2.697  C    
      7 O           5.803    -4.524     3.533  O    
      8 N           4.789    -5.410     1.782  N    
      9 C           3.762    -4.422     1.627  C    
     10 C           4.285    -3.110     0.978  C    
     11 C           3.752    -1.031    -0.279  C    
     12 C           2.642    -0.021    -0.666  C    
     13 O           2.020     0.531     0.511  O    
     14 C           1.459    -0.470     1.381  C    
     15 C           2.535    -1.495     1.825  C    
     16 O           7.894    -5.891     4.805  O    
     17 C           8.669    -6.499     5.869  C    
     18 C           9.882    -7.282     5.291  C    
     19 O           9.448    -8.276     4.331  O    
     20 N           3.224    -2.099     0.634  N    
     21 H           8.562    -9.416     1.982  H    
     22 H           4.749    -6.171     1.177  H    
     23 H           2.991    -4.846     0.977  H    
     24 H           3.300    -4.220     2.597  H    
     25 H           5.032    -2.650     1.633  H    
     26 H           4.795    -3.408     0.057  H    
     27 H           4.135    -1.478    -1.202  H    
     28 H           4.572    -0.488     0.204  H    
     29 H           3.088     0.797    -1.235  H    
     30 H           1.896    -0.506    -1.302  H    
     31 H           1.054     0.035     2.261  H    
     32 H           0.633    -0.985     0.880  H    
     33 H           3.259    -0.989     2.472  H    
     34 H           2.033    -2.265     2.414  H    
     35 H           9.023    -5.717     6.543  H    
     36 H           8.037    -7.182     6.440  H    
     37 H          10.562    -6.588     4.793  H    
     38 H          10.423    -7.786     6.096  H    
     39 H           2.505    -2.597     0.106  H    
@<TRIPOS>BOND
     1    1    5 1
     2    1    2 2
     3    2   19 1
     4    2    3 1
     5    3    4 2
     6    3   16 1
     7    4    5 1
     8    4    6 1
     9    6    7 2
    10    6    8 1
    11    8    9 1
    12    9   10 1
    13   10   20 1
    14   11   12 1
    15   11   20 1
    16   12   13 1
    17   13   14 1
    18   14   15 1
    19   15   20 1
    20   16   17 1
    21   17   18 1
    22   18   19 1
    23    1   21 1
    24    8   22 1
    25    9   23 1
    26    9   24 1
    27   10   25 1
    28   10   26 1
    29   11   27 1
    30   11   28 1
    31   12   29 1
    32   12   30 1
    33   14   31 1
    34   14   32 1
    35   15   33 1
    36   15   34 1
    37   17   35 1
    38   17   36 1
    39   18   37 1
    40   18   38 1
    41   20   39 1
@<TRIPOS>MOLECULE
ZINC00115977
 32 33 0 0 0
SMALL
NO_CHARGES


@<TRIPOS>ATOM
      1 C           1.508     7.266    11.067  C    
      2 N           1.920     7.410     9.689  N    
      3 C           3.279     7.905     9.470  C    
      4 C           3.331     9.448     9.293  C    
      5 O           2.956    10.086    10.535  O    
      6 C           2.708    11.498    10.459  C    
      7 O           4.603     9.910     8.783  O    
      8 C           5.761     9.774     9.626  C    
      9 C           1.074     7.138     8.624  C    
     10 C          -0.252     6.588     8.641  C    
     11 C          -1.081     6.128     9.695  C    
     12 C          -2.336     5.643     9.319  C    
     13 S          -2.467     5.765     7.615  S    
     14 C          -0.905     6.438     7.396  C    
     15 N          -0.349     6.776     6.214  N    
     16 C           0.900     7.287     6.206  C    
     17 N           1.558     7.448     7.379  N    
     18 H           1.345     6.212    11.295  H    
     19 H           0.602     7.845    11.245  H    
     20 H           2.245     7.630    11.788  H    
     21 H           3.935     7.625    10.298  H    
     22 H           3.728     7.428     8.594  H    
     23 H           2.593     9.706     8.527  H    
     24 H           3.592    12.038    10.118  H    
     25 H           2.452    11.855    11.457  H    
     26 H           1.871    11.712     9.792  H    
     27 H           5.608    10.251    10.597  H    
     28 H           6.601    10.264     9.133  H    
     29 H           6.019     8.724     9.767  H    
     30 H          -0.829     6.119    10.676  H    
     31 H          -3.054     5.275     9.945  H    
     32 H           1.344     7.550     5.326  H    
@<TRIPOS>BOND
     1    1    2 1
     2    2    3 1
     3    2    9 1
     4    3    4 1
     5    4    5 1
     6    4    7 1
     7    5    6 1
     8    7    8 1
     9    9   17 ar
    10    9   10 ar
    11   10   14 ar
    12   10   11 1
    13   11   12 2
    14   12   13 1
    15   13   14 1
    16   14   15 ar
    17   15   16 ar
    18   16   17 ar
    19    1   18 1
    20    1   19 1
    21    1   20 1
    22    3   21 1
    23    3   22 1
    24    4   23 1
    25    6   24 1
    26    6   25 1
    27    6   26 1
    28    8   27 1
    29    8   28 1
    30    8   29 1
    31   11   30 1
    32   12   31 1
    33   16   32 1
@<TRIPOS>MOLECULE
ZINC00118797
 38 40 0 0 0
SMALL
NO_CHARGES


@<TRIPOS>ATOM
      1 C           3.111    -3.834     1.572  C    
      2 C           1.880    -3.169     1.429  C    
      3 C           1.846    -1.831     0.995  C    
      4 C           3.043    -1.133     0.699  C    
      5 C           4.282    -1.832     0.786  C    
      6 C           4.306    -3.170     1.249  C    
      7 C           5.560    -1.197     0.368  C    
      8 C           5.318     0.027    -0.544  C    
      9 O           4.328     0.879     0.055  O    
     10 C           3.013     0.292     0.226  C    
     11 C           2.263     1.257     1.197  C    
     12 N           2.232     2.611     0.727  N    
     13 C           1.519     3.060    -0.299  C    
     14 O           0.812     2.317    -0.970  O    
     15 C           1.658     4.352    -0.682  C    
     16 C           0.668     5.244    -0.872  C    
     17 C          -0.683     5.048    -0.619  C    
     18 C          -1.721     5.884    -1.040  C    
     19 C          -2.906     5.331    -0.588  C    
     20 C          -2.569     4.178     0.113  C    
     21 O          -1.225     4.018     0.086  O    
     22 H           3.131    -4.808     1.887  H    
     23 H           1.006    -3.664     1.636  H    
     24 H           0.940    -1.376     0.880  H    
     25 H           5.190    -3.676     1.332  H    
     26 H           6.101    -0.889     1.266  H    
     27 H           6.181    -1.909    -0.181  H    
     28 H           6.245     0.596    -0.644  H    
     29 H           4.995    -0.291    -1.540  H    
     30 H           2.508     0.302    -0.746  H    
     31 H           1.237     0.930     1.377  H    
     32 H           2.778     1.249     2.159  H    
     33 H           2.770     3.260     1.212  H    
     34 H           2.588     4.656    -0.873  H    
     35 H           0.931     6.132    -1.241  H    
     36 H          -1.633     6.738    -1.602  H    
     37 H          -3.848     5.693    -0.752  H    
     38 H          -3.235     3.542     0.557  H    
@<TRIPOS>BOND
     1    1    6 ar
     2    1    2 ar
     3    2    3 ar
     4    3    4 ar
     5    4   10 1
     6    4    5 ar
     7    5    6 ar
     8    5    7 1
     9    7    8 1
    10    8    9 1
    11    9   10 1
    12   10   11 1
    13   11   12 1
    14   12   13 1
    15   13   14 2
    16   13   15 1
    17   15   16 2
    18   16   17 1
    19   17   21 1
    20   17   18 2
    21   18   19 1
    22   19   20 2
    23   20   21 1
    24    1   22 1
    25    2   23 1
    26    3   24 1
    27    6   25 1
    28    7   26 1
    29    7   27 1
    30    8   28 1
    31    8   29 1
    32   10   30 1
    33   11   31 1
    34   11   32 1
    35   12   33 1
    36   15   34 1
    37   16   35 1
    38   18   36 1
    39   19   37 1
    40   20   38 1
@<TRIPOS>MOLECULE
ZINC00120463
 24 24 0 0 0
SMALL
NO_CHARGES


@<TRIPOS>ATOM
      1 C           7.674    -3.472     3.799  C    
      2 O           7.006    -4.495     3.056  O    
      3 C           5.671    -4.559     2.812  C    
      4 O           4.828    -3.607     3.278  O    
      5 C           5.123    -5.678     2.034  C    
      6 O           4.513    -5.147     0.842  O    
      7 C           3.896    -6.097     0.070  C    
      8 C           4.693    -6.789    -0.867  C    
      9 C           4.128    -7.768    -1.700  C    
     10 C           2.757    -8.051    -1.610  C    
     11 C           1.953    -7.348    -0.695  C    
     12 C           2.494    -6.349     0.157  C    
     13 N           1.671    -5.670     1.012  N    
     14 O           2.051    -4.792     1.741  O    
     15 O           0.390    -5.914     1.095  O    
     16 H           7.520    -2.499     3.327  H    
     17 H           8.741    -3.690     3.820  H    
     18 H           7.298    -3.443     4.823  H    
     19 H           5.926    -6.375     1.777  H    
     20 H           4.390    -6.201     2.656  H    
     21 H           5.693    -6.585    -0.941  H    
     22 H           4.713    -8.271    -2.371  H    
     23 H           2.343    -8.763    -2.215  H    
     24 H           0.956    -7.574    -0.667  H    
@<TRIPOS>BOND
     1    1    2 1
     2    2    3 1
     3    3    4 2
     4    3    5 1
     5    5    6 1
     6    6    7 1
     7    7   12 ar
     8    7    8 ar
     9    8    9 ar
    10    9   10 ar
    11   10   11 ar
    12   11   12 ar
    13   12   13 1
    14   13   14 2
    15   13   15 1
    16    1   16 1
    17    1   17 1
    18    1   18 1
    19    5   19 1
    20    5   20 1
    21    8   21 1
    22    9   22 1
    23   10   23 1
    24   11   24 1
@<TRIPOS>MOLECULE
ZINC00122326
 39 40 0 0 0
SMALL
NO_CHARGES


@<TRIPOS>ATOM
      1 C           2.991    -6.984     4.187  C    
      2 C           4.327    -7.462     3.745  C    
      3 C           4.966    -8.520     4.432  C    
      4 C           6.232    -9.013     4.040  C    
      5 C           6.844    -8.416     2.913  C    
      6 C           6.226    -7.374     2.187  C    
      7 C           4.976    -6.871     2.631  C    
      8 O           4.349    -5.857     1.948  O    
      9 C           4.757    -4.530     2.350  C    
     10 C           4.064    -3.477     1.613  C    
     11 O           3.210    -3.864     0.821  O    
     12 N           4.288    -2.152     1.761  N    
     13 C           5.254    -1.598     2.700  C    
     14 C           4.551    -0.579     3.635  C    
     15 O           3.847     0.422     2.870  O    
     16 C           2.889    -0.131     1.945  C    
     17 C           3.563    -1.149     0.989  C    
     18 C           6.910    -6.868     0.970  C    
     19 N           6.838   -10.039     4.705  N    
     20 O           6.315   -10.619     5.625  O    
     21 O           8.019   -10.491     4.372  O    
     22 H           3.058    -5.950     4.533  H    
     23 H           2.583    -7.583     5.005  H    
     24 H           2.289    -7.033     3.352  H    
     25 H           4.496    -8.938     5.241  H    
     26 H           7.756    -8.760     2.598  H    
     27 H           4.553    -4.388     3.413  H    
     28 H           5.830    -4.417     2.177  H    
     29 H           5.751    -2.335     3.335  H    
     30 H           6.040    -1.081     2.139  H    
     31 H           3.861    -1.098     4.305  H    
     32 H           5.299    -0.072     4.248  H    
     33 H           2.069    -0.612     2.489  H    
     34 H           2.469     0.690     1.360  H    
     35 H           4.272    -0.615     0.347  H    
     36 H           2.790    -1.559     0.334  H    
     37 H           7.839    -6.363     1.255  H    
     38 H           6.298    -6.167     0.398  H    
     39 H           7.159    -7.702     0.304  H    
@<TRIPOS>BOND
     1    1    2 1
     2    2    7 ar
     3    2    3 ar
     4    3    4 ar
     5    4    5 ar
     6    4   19 1
     7    5    6 ar
     8    6    7 ar
     9    6   18 1
    10    7    8 1
    11    8    9 1
    12    9   10 1
    13   10   11 2
    14   10   12 1
    15   12   17 1
    16   12   13 1
    17   13   14 1
    18   14   15 1
    19   15   16 1
    20   16   17 1
    21   19   20 2
    22   19   21 1
    23    1   22 1
    24    1   23 1
    25    1   24 1
    26    3   25 1
    27    5   26 1
    28    9   27 1
    29    9   28 1
    30   13   29 1
    31   13   30 1
    32   14   31 1
    33   14   32 1
    34   16   33 1
    35   16   34 1
    36   17   35 1
    37   17   36 1
    38   18   37 1
    39   18   38 1
    40   18   39 1
@<TRIPOS>MOLECULE
ZINC00129775
 40 41 0 0 0
SMALL
NO_CHARGES


@<TRIPOS>ATOM
      1 C           8.055    -6.119     1.006  C    
      2 C           6.555    -5.806     0.774  C    
      3 C           5.712    -7.041     0.775  C    
      4 C           4.961    -7.409    -0.373  C    
      5 C           4.154    -8.561    -0.371  C    
      6 C           4.088    -9.372     0.776  C    
      7 C           4.828    -9.027     1.925  C    
      8 C           5.629    -7.871     1.924  C    
      9 N           6.085    -4.922     1.806  N    
     10 C           5.677    -3.667     1.676  C    
     11 O           5.711    -3.093     0.590  O    
     12 C           5.202    -2.938     2.854  C    
     13 C           3.693    -2.578     2.680  C    
     14 C           3.132    -1.798     3.897  C    
     15 C           3.976    -0.537     4.201  C    
     16 C           5.476    -0.885     4.388  C    
     17 C           6.065    -1.663     3.169  C    
     18 C           7.506    -1.941     3.416  C    
     19 O           7.981    -3.185     3.650  O    
     20 O           8.383    -0.914     3.494  O    
     21 H           8.229    -6.526     2.004  H    
     22 H           8.646    -5.206     0.903  H    
     23 H           8.409    -6.840     0.266  H    
     24 H           6.496    -5.322    -0.209  H    
     25 H           4.995    -6.836    -1.221  H    
     26 H           3.616    -8.815    -1.206  H    
     27 H           3.504   -10.210     0.778  H    
     28 H           4.773    -9.613     2.761  H    
     29 H           6.148    -7.631     2.775  H    
     30 H           6.071    -5.292     2.705  H    
     31 H           5.265    -3.593     3.729  H    
     32 H           3.555    -1.969     1.782  H    
     33 H           3.105    -3.495     2.559  H    
     34 H           2.100    -1.500     3.691  H    
     35 H           3.123    -2.449     4.774  H    
     36 H           3.866     0.178     3.382  H    
     37 H           3.599    -0.063     5.112  H    
     38 H           6.026     0.049     4.540  H    
     39 H           5.583    -1.488     5.294  H    
     40 H           6.018    -0.999     2.300  H    
@<TRIPOS>BOND
     1    1    2 1
     2    2    3 1
     3    2    9 1
     4    3    8 ar
     5    3    4 ar
     6    4    5 ar
     7    5    6 ar
     8    6    7 ar
     9    7    8 ar
    10    9   10 1
    11   10   11 2
    12   10   12 1
    13   12   17 1
    14   12   13 1
    15   13   14 1
    16   14   15 1
    17   15   16 1
    18   16   17 1
    19   17   18 1
    20   18   19 2
    21   18   20 1
    22    1   21 1
    23    1   22 1
    24    1   23 1
    25    2   24 1
    26    4   25 1
    27    5   26 1
    28    6   27 1
    29    7   28 1
    30    8   29 1
    31    9   30 1
    32   12   31 1
    33   13   32 1
    34   13   33 1
    35   14   34 1
    36   14   35 1
    37   15   36 1
    38   15   37 1
    39   16   38 1
    40   16   39 1
    41   17   40 1
@<TRIPOS>MOLECULE
ZINC00142976
 37 38 0 0 0
SMALL
NO_CHARGES


@<TRIPOS>ATOM
      1 C           5.244   -10.860     0.716  C    
      2 C           4.353    -9.778     1.110  C    
      3 O           3.448   -10.110     1.867  O    
      4 N           4.466    -8.497     0.703  N    
      5 C           5.498    -8.029    -0.212  C    
      6 C           6.361    -6.925     0.454  C    
      7 C           5.480    -5.760     0.988  C    
      8 C           4.342    -6.324     1.887  C    
      9 C           3.558    -7.453     1.165  C    
     10 N           6.313    -4.829     1.689  N    
     11 C           5.956    -3.589     2.087  C    
     12 O           4.722    -3.096     1.824  O    
     13 O           6.914    -2.849     2.703  O    
     14 C           6.961    -1.599     3.260  C    
     15 C           5.830    -0.793     3.532  C    
     16 C           5.981     0.479     4.115  C    
     17 C           7.265     0.962     4.435  C    
     18 C           8.395     0.163     4.177  C    
     19 C           8.240    -1.110     3.599  C    
     20 Cl          7.446     2.492     5.133  Cl   
     21 H           4.962   -11.816     1.166  H    
     22 H           6.262   -10.630     1.033  H    
     23 H           5.221   -10.985    -0.367  H    
     24 H           6.175    -8.809    -0.560  H    
     25 H           5.020    -7.619    -1.108  H    
     26 H           6.926    -7.372     1.279  H    
     27 H           7.079    -6.538    -0.276  H    
     28 H           5.037    -5.251     0.125  H    
     29 H           4.768    -6.723     2.812  H    
     30 H           3.645    -5.526     2.155  H    
     31 H           3.032    -7.030     0.304  H    
     32 H           2.786    -7.810     1.853  H    
     33 H           7.228    -5.098     1.865  H    
     34 H           4.889    -1.126     3.326  H    
     35 H           5.153     1.048     4.306  H    
     36 H           9.333     0.502     4.408  H    
     37 H           9.070    -1.681     3.417  H    
@<TRIPOS>BOND
     1    1    2 1
     2    2    3 2
     3    2    4 1
     4    4    9 1
     5    4    5 1
     6    5    6 1
     7    6    7 1
     8    7    8 1
     9    7   10 1
    10    8    9 1
    11   10   11 1
    12   11   12 2
    13   11   13 1
    14   13   14 1
    15   14   19 ar
    16   14   15 ar
    17   15   16 ar
    18   16   17 ar
    19   17   18 ar
    20   17   20 1
    21   18   19 ar
    22    1   21 1
    23    1   22 1
    24    1   23 1
    25    5   24 1
    26    5   25 1
    27    6   26 1
    28    6   27 1
    29    7   28 1
    30    8   29 1
    31    8   30 1
    32    9   31 1
    33    9   32 1
    34   10   33 1
    35   15   34 1
    36   16   35 1
    37   18   36 1
    38   19   37 1
@<TRIPOS>MOLECULE
ZINC00144478
 41 41 0 0 0
SMALL
NO_CHARGES


@<TRIPOS>ATOM
      1 C           6.229    -8.825     1.900  C    
      2 C           4.975    -8.126     1.499  C    
      3 C           4.095    -8.783     0.610  C    
      4 C           2.893    -8.183     0.214  C    
      5 C           2.539    -6.901     0.680  C    
      6 C           3.430    -6.210     1.544  C    
      7 C           4.636    -6.829     1.990  C    
      8 C           5.532    -6.144     2.965  C    
      9 O           3.096    -4.954     1.982  O    
     10 C           3.579    -3.885     1.137  C    
     11 C           3.169    -2.585     1.633  C    
     12 O           2.486    -2.508     2.645  O    
     13 N           3.547    -1.510     0.958  N    
     14 C           3.268    -0.117     1.226  C    
     15 C           3.980     0.687     0.097  C    
     16 C           1.738     0.172     1.158  C    
     17 C           3.856     0.324     2.601  C    
     18 C           1.230    -6.348     0.240  C    
     19 H           7.092    -8.214     1.624  H    
     20 H           6.347    -9.803     1.423  H    
     21 H           6.230    -8.983     2.982  H    
     22 H           4.317    -9.716     0.251  H    
     23 H           2.267    -8.693    -0.418  H    
     24 H           5.666    -6.775     3.848  H    
     25 H           5.143    -5.188     3.314  H    
     26 H           6.504    -5.958     2.501  H    
     27 H           4.672    -3.910     1.093  H    
     28 H           3.188    -4.005     0.123  H    
     29 H           4.088    -1.686     0.169  H    
     30 H           5.056     0.501     0.111  H    
     31 H           3.820     1.761     0.221  H    
     32 H           3.597     0.398    -0.884  H    
     33 H           1.322    -0.196     0.215  H    
     34 H           1.545     1.247     1.225  H    
     35 H           1.205    -0.314     1.980  H    
     36 H           3.329    -0.155     3.431  H    
     37 H           3.765     1.407     2.729  H    
     38 H           4.914     0.056     2.666  H    
     39 H           1.230    -6.236    -0.850  H    
     40 H           1.005    -5.373     0.684  H    
     41 H           0.426    -7.037     0.522  H    
@<TRIPOS>BOND
     1    1    2 1
     2    2    7 ar
     3    2    3 ar
     4    3    4 ar
     5    4    5 ar
     6    5    6 ar
     7    5   18 1
     8    6    7 ar
     9    6    9 1
    10    7    8 1
    11    9   10 1
    12   10   11 1
    13   11   12 2
    14   11   13 1
    15   13   14 1
    16   14   15 1
    17   14   16 1
    18   14   17 1
    19    1   19 1
    20    1   20 1
    21    1   21 1
    22    3   22 1
    23    4   23 1
    24    8   24 1
    25    8   25 1
    26    8   26 1
    27   10   27 1
    28   10   28 1
    29   13   29 1
    30   15   30 1
    31   15   31 1
    32   15   32 1
    33   16   33 1
    34   16   34 1
    35   16   35 1
    36   17   36 1
    37   17   37 1
    38   17   38 1
    39   18   39 1
    40   18   40 1
    41   18   41 1
@<TRIPOS>MOLECULE
ZINC00145124
 34 34 0 0 0
SMALL
NO_CHARGES


@<TRIPOS>ATOM
      1 C           1.968    -8.012    -2.881  C    
      2 C           1.867    -6.664    -2.115  C    
      3 C           2.486    -6.543    -0.751  C    
      4 C           3.083    -7.660    -0.112  C    
      5 C           3.627    -7.558     1.176  C    
      6 C           3.631    -6.321     1.836  C    
      7 C           3.087    -5.166     1.226  C    
      8 C           2.449    -5.300    -0.046  C    
      9 N           1.808    -4.254    -0.655  N    
     10 C           0.732    -3.626    -0.194  C    
     11 O           0.266    -3.880     0.912  O    
     12 C           0.087    -2.655    -1.061  C    
     13 C          -1.084    -1.849    -0.434  C    
     14 C           3.243    -3.860     1.943  C    
     15 C           4.718    -3.448     2.181  C    
     16 H           3.018    -8.288    -3.029  H    
     17 H           1.492    -7.922    -3.865  H    
     18 H           1.460    -8.805    -2.325  H    
     19 H           2.324    -5.907    -2.756  H    
     20 H           0.803    -6.425    -2.024  H    
     21 H           3.119    -8.573    -0.566  H    
     22 H           4.043    -8.378     1.623  H    
     23 H           4.050    -6.271     2.768  H    
     24 H           2.051    -4.076    -1.576  H    
     25 H           0.840    -1.935    -1.400  H    
     26 H          -0.300    -3.184    -1.939  H    
     27 H          -1.888    -2.523    -0.127  H    
     28 H          -1.486    -1.142    -1.163  H    
     29 H          -0.733    -1.289     0.436  H    
     30 H           2.786    -3.038     1.395  H    
     31 H           2.735    -3.922     2.909  H    
     32 H           5.219    -4.147     2.856  H    
     33 H           4.753    -2.457     2.641  H    
     34 H           5.262    -3.412     1.231  H    
@<TRIPOS>BOND
     1    1    2 1
     2    2    3 1
     3    3    8 ar
     4    3    4 ar
     5    4    5 ar
     6    5    6 ar
     7    6    7 ar
     8    7    8 ar
     9    7   14 1
    10    8    9 1
    11    9   10 1
    12   10   11 2
    13   10   12 1
    14   12   13 1
    15   14   15 1
    16    1   16 1
    17    1   17 1
    18    1   18 1
    19    2   19 1
    20    2   20 1
    21    4   21 1
    22    5   22 1
    23    6   23 1
    24    9   24 1
    25   12   25 1
    26   12   26 1
    27   13   27 1
    28   13   28 1
    29   13   29 1
    30   14   30 1
    31   14   31 1
    32   15   32 1
    33   15   33 1
    34   15   34 1
@<TRIPOS>MOLECULE
ZINC00146504
 33 34 0 0 0
SMALL
NO_CHARGES


@<TRIPOS>ATOM
      1 C           7.299    -9.546    -1.690  C    
      2 C           6.343    -8.830    -0.810  C    
      3 C           5.067    -9.367    -0.520  C    
      4 C           4.181    -8.672     0.321  C    
      5 C           4.557    -7.438     0.883  C    
      6 C           5.828    -6.864     0.613  C    
      7 C           6.706    -7.587    -0.241  C    
      8 C           6.209    -5.629     1.159  C    
      9 O           7.179    -5.035     0.698  O    
     10 N           5.557    -5.082     2.179  N    
     11 N           5.890    -3.948     2.742  N    
     12 C           5.270    -3.428     3.793  C    
     13 O           4.328    -4.045     4.279  O    
     14 C           5.678    -2.218     4.370  C    
     15 C           6.518    -1.305     3.672  C    
     16 C           6.915    -0.088     4.253  C    
     17 C           6.483     0.254     5.549  C    
     18 C           5.653    -0.634     6.263  C    
     19 C           5.254    -1.849     5.678  C    
     20 F           6.851     1.381     6.090  F    
     21 H           7.568    -8.912    -2.537  H    
     22 H           6.875   -10.475    -2.079  H    
     23 H           8.204    -9.790    -1.132  H    
     24 H           4.776   -10.266    -0.917  H    
     25 H           3.259    -9.065     0.525  H    
     26 H           3.877    -6.956     1.477  H    
     27 H           7.636    -7.211    -0.454  H    
     28 H           4.805    -5.564     2.556  H    
     29 H           6.654    -3.474     2.379  H    
     30 H           6.841    -1.510     2.723  H    
     31 H           7.521     0.554     3.732  H    
     32 H           5.338    -0.393     7.209  H    
     33 H           4.653    -2.472     6.226  H    
@<TRIPOS>BOND
     1    1    2 1
     2    2    7 ar
     3    2    3 ar
     4    3    4 ar
     5    4    5 ar
     6    5    6 ar
     7    6    7 ar
     8    6    8 1
     9    8    9 2
    10    8   10 1
    11   10   11 1
    12   11   12 1
    13   12   13 2
    14   12   14 1
    15   14   19 ar
    16   14   15 ar
    17   15   16 ar
    18   16   17 ar
    19   17   18 ar
    20   17   20 1
    21   18   19 ar
    22    1   21 1
    23    1   22 1
    24    1   23 1
    25    3   24 1
    26    4   25 1
    27    5   26 1
    28    7   27 1
    29   10   28 1
    30   11   29 1
    31   15   30 1
    32   16   31 1
    33   18   32 1
    34   19   33 1
@<TRIPOS>MOLECULE
ZINC00148153
 40 42 0 0 0
SMALL
NO_CHARGES


@<TRIPOS>ATOM
      1 C          -9.115    10.434     1.134  C    
      2 C          -9.299     9.813     2.540  C    
      3 C         -10.784     9.718     2.964  C    
      4 O          -8.639     8.542     2.664  O    
      5 C          -8.844     7.356     2.025  C    
      6 O          -9.807     7.273     1.076  O    
      7 C          -8.056     6.224     2.344  C    
      8 C          -7.154     6.248     3.434  C    
      9 C          -6.363     5.132     3.757  C    
     10 C          -6.431     3.945     2.994  C    
     11 C          -7.344     3.908     1.920  C    
     12 C          -8.140     5.024     1.600  C    
     13 N          -5.707     2.808     3.216  N    
     14 C          -4.582     2.608     3.937  C    
     15 N          -3.878     3.556     4.589  N    
     16 S          -2.510     2.975     5.371  S    
     17 O          -1.119     3.379     4.712  O    
     18 O          -2.620     2.868     6.954  O    
     19 C          -2.820     1.380     4.813  C    
     20 C          -3.986     1.341     4.045  C    
     21 C          -4.411     0.114     3.489  C    
     22 C          -3.656    -1.056     3.719  C    
     23 C          -2.482    -0.999     4.501  C    
     24 C          -2.056     0.224     5.054  C    
     25 H          -9.654     9.860     0.380  H    
     26 H          -8.055    10.451     0.869  H    
     27 H          -9.490    11.461     1.122  H    
     28 H          -8.804    10.477     3.252  H    
     29 H         -11.235    10.712     2.997  H    
     30 H         -10.861     9.270     3.958  H    
     31 H         -11.349     9.103     2.263  H    
     32 H          -7.067     7.079     4.021  H    
     33 H          -5.754     5.200     4.570  H    
     34 H          -7.428     3.066     1.342  H    
     35 H          -8.773     4.947     0.800  H    
     36 H          -6.033     2.026     2.740  H    
     37 H          -5.256     0.058     2.919  H    
     38 H          -3.957    -1.946     3.312  H    
     39 H          -1.943    -1.852     4.661  H    
     40 H          -1.203     0.262     5.616  H    
@<TRIPOS>BOND
     1    1    2 1
     2    2    3 1
     3    2    4 1
     4    4    5 1
     5    5    6 2
     6    5    7 1
     7    7   12 ar
     8    7    8 ar
     9    8    9 ar
    10    9   10 ar
    11   10   11 ar
    12   10   13 1
    13   11   12 ar
    14   13   14 1
    15   14   20 1
    16   14   15 2
    17   15   16 1
    18   16   17 2
    19   16   18 2
    20   16   19 1
    21   19   24 ar
    22   19   20 ar
    23   20   21 ar
    24   21   22 ar
    25   22   23 ar
    26   23   24 ar
    27    1   25 1
    28    1   26 1
    29    1   27 1
    30    2   28 1
    31    3   29 1
    32    3   30 1
    33    3   31 1
    34    8   32 1
    35    9   33 1
    36   11   34 1
    37   12   35 1
    38   13   36 1
    39   21   37 1
    40   22   38 1
    41   23   39 1
    42   24   40 1
@<TRIPOS>MOLECULE
ZINC00149600
 40 41 0 0 0
SMALL
NO_CHARGES


@<TRIPOS>ATOM
      1 C           4.047   -11.495    -0.454  C    
      2 C           4.397   -10.244     0.258  C    
      3 C           3.460    -9.570     1.067  C    
      4 C           3.813    -8.383     1.731  C    
      5 C           5.116    -7.840     1.619  C    
      6 C           6.062    -8.501     0.784  C    
      7 C           5.690    -9.697     0.123  C    
      8 C           7.439    -7.969     0.605  C    
      9 N           5.486    -6.668     2.233  N    
     10 C           5.030    -6.092     3.339  C    
     11 O           4.201    -6.617     4.073  O    
     12 C           5.595    -4.928     3.735  C    
     13 C           4.882    -3.834     4.065  C    
     14 C           5.398    -2.589     4.454  C    
     15 C           6.708    -2.441     4.984  C    
     16 C           7.215    -1.180     5.346  C    
     17 C           6.425    -0.033     5.183  C    
     18 C           5.122    -0.152     4.677  C    
     19 C           4.595    -1.417     4.339  C    
     20 O           3.326    -1.459     3.816  O    
     21 C           2.291    -1.467     4.816  C    
     22 H           4.162   -11.350    -1.530  H    
     23 H           3.018   -11.805    -0.259  H    
     24 H           4.712   -12.299    -0.132  H    
     25 H           2.509    -9.933     1.172  H    
     26 H           3.091    -7.906     2.274  H    
     27 H           6.369   -10.181    -0.471  H    
     28 H           7.395    -6.974     0.160  H    
     29 H           8.052    -8.598    -0.043  H    
     30 H           7.937    -7.903     1.574  H    
     31 H           6.231    -6.206     1.815  H    
     32 H           6.586    -4.875     3.696  H    
     33 H           3.893    -3.909     3.985  H    
     34 H           7.311    -3.252     5.133  H    
     35 H           8.161    -1.098     5.724  H    
     36 H           6.796     0.885     5.435  H    
     37 H           4.552     0.689     4.556  H    
     38 H           2.373    -2.339     5.469  H    
     39 H           1.328    -1.511     4.308  H    
     40 H           2.314    -0.558     5.422  H    
@<TRIPOS>BOND
     1    1    2 1
     2    2    7 ar
     3    2    3 ar
     4    3    4 ar
     5    4    5 ar
     6    5    6 ar
     7    5    9 1
     8    6    7 ar
     9    6    8 1
    10    9   10 1
    11   10   11 2
    12   10   12 1
    13   12   13 2
    14   13   14 1
    15   14   19 ar
    16   14   15 ar
    17   15   16 ar
    18   16   17 ar
    19   17   18 ar
    20   18   19 ar
    21   19   20 1
    22   20   21 1
    23    1   22 1
    24    1   23 1
    25    1   24 1
    26    3   25 1
    27    4   26 1
    28    7   27 1
    29    8   28 1
    30    8   29 1
    31    8   30 1
    32    9   31 1
    33   12   32 1
    34   13   33 1
    35   15   34 1
    36   16   35 1
    37   17   36 1
    38   18   37 1
    39   21   38 1
    40   21   39 1
    41   21   40 1
@<TRIPOS>MOLECULE
ZINC00151067
 38 40 0 0 0
SMALL
NO_CHARGES


@<TRIPOS>ATOM
      1 C           4.871    -3.466    -1.552  C    
      2 N           4.197    -4.674    -1.919  N    
      3 C           4.161    -5.857    -1.256  C    
      4 C           4.771    -6.212    -0.030  C    
      5 C           4.624    -7.520     0.483  C    
      6 C           3.850    -8.466    -0.221  C    
      7 C           3.232    -8.116    -1.435  C    
      8 C           3.394    -6.811    -1.940  C    
      9 C           2.879    -6.313    -3.096  C    
     10 O           2.164    -6.929    -3.870  O    
     11 S           3.323    -4.697    -3.373  S    
     12 S           5.376    -7.970     1.987  S    
     13 O           5.927    -9.457     1.838  O    
     14 O           6.566    -6.977     2.354  O    
     15 N           4.200    -7.938     3.192  N    
     16 C           4.502    -8.316     4.533  C    
     17 C           3.228    -8.241     5.411  C    
     18 C           3.507    -8.524     6.847  C    
     19 C           3.414    -7.504     7.824  C    
     20 C           3.681    -7.808     9.173  C    
     21 N           4.020    -9.073     9.534  N    
     22 C           4.116   -10.080     8.625  C    
     23 C           3.860    -9.830     7.262  C    
     24 H           5.564    -3.176    -2.344  H    
     25 H           5.437    -3.555    -0.626  H    
     26 H           4.137    -2.667    -1.427  H    
     27 H           5.313    -5.523     0.492  H    
     28 H           3.721    -9.414     0.143  H    
     29 H           2.669    -8.808    -1.943  H    
     30 H           3.409    -7.393     3.041  H    
     31 H           4.907    -9.331     4.544  H    
     32 H           5.261    -7.627     4.929  H    
     33 H           2.794    -7.238     5.299  H    
     34 H           2.487    -8.954     5.046  H    
     35 H           3.156    -6.545     7.565  H    
     36 H           3.619    -7.082     9.888  H    
     37 H           4.371   -11.018     8.939  H    
     38 H           3.924   -10.597     6.587  H    
@<TRIPOS>BOND
     1    1    2 1
     2    2   11 1
     3    2    3 1
     4    3    8 ar
     5    3    4 ar
     6    4    5 ar
     7    5    6 ar
     8    5   12 1
     9    6    7 ar
    10    7    8 ar
    11    8    9 1
    12    9   10 2
    13    9   11 1
    14   12   13 2
    15   12   14 2
    16   12   15 1
    17   15   16 1
    18   16   17 1
    19   17   18 1
    20   18   23 ar
    21   18   19 ar
    22   19   20 ar
    23   20   21 ar
    24   21   22 ar
    25   22   23 ar
    26    1   24 1
    27    1   25 1
    28    1   26 1
    29    4   27 1
    30    6   28 1
    31    7   29 1
    32   15   30 1
    33   16   31 1
    34   16   32 1
    35   17   33 1
    36   17   34 1
    37   19   35 1
    38   20   36 1
    39   22   37 1
    40   23   38 1
@<TRIPOS>MOLECULE
ZINC00155885
 40 41 0 0 0
SMALL
NO_CHARGES


@<TRIPOS>ATOM
      1 C           7.775    -8.010     3.846  C    
      2 C           7.680    -6.481     3.508  C    
      3 C           8.955    -6.098     2.682  C    
      4 C           6.366    -6.266     2.651  C    
      5 C           5.943    -4.932     2.196  C    
      6 O           6.800    -4.060     2.243  O    
      7 N           4.741    -4.644     1.635  N    
      8 C           3.837    -5.730     1.255  C    
      9 C           2.619    -5.342     0.370  C    
     10 C           3.048    -4.234    -0.618  C    
     11 C           3.540    -3.078     0.173  C    
     12 C           4.355    -3.330     1.316  C    
     13 C           4.660    -2.222     2.153  C    
     14 C           4.251    -0.915     1.830  C    
     15 C           3.498    -0.682     0.671  C    
     16 C           3.131    -1.762    -0.149  C    
     17 C           7.587    -5.671     4.856  C    
     18 C           8.739    -5.809     5.772  C    
     19 O           9.884    -5.113     5.566  O    
     20 O           8.609    -6.485     6.942  O    
     21 H           7.831    -8.608     2.930  H    
     22 H           6.900    -8.343     4.416  H    
     23 H           8.665    -8.232     4.442  H    
     24 H           9.862    -6.467     3.161  H    
     25 H           9.054    -5.019     2.582  H    
     26 H           8.910    -6.532     1.681  H    
     27 H           6.449    -6.890     1.757  H    
     28 H           5.539    -6.664     3.245  H    
     29 H           4.398    -6.471     0.674  H    
     30 H           3.458    -6.224     2.150  H    
     31 H           2.256    -6.212    -0.182  H    
     32 H           1.801    -4.974     0.999  H    
     33 H           3.858    -4.596    -1.262  H    
     34 H           2.202    -3.962    -1.256  H    
     35 H           5.172    -2.351     3.030  H    
     36 H           4.493    -0.130     2.443  H    
     37 H           3.193     0.264     0.434  H    
     38 H           2.549    -1.586    -0.974  H    
     39 H           7.466    -4.605     4.654  H    
     40 H           6.688    -5.988     5.394  H    
@<TRIPOS>BOND
     1    1    2 1
     2    2    3 1
     3    2    4 1
     4    2   17 1
     5    4    5 1
     6    5    6 2
     7    5    7 1
     8    7   12 1
     9    7    8 1
    10    8    9 1
    11    9   10 1
    12   10   11 1
    13   11   16 ar
    14   11   12 ar
    15   12   13 ar
    16   13   14 ar
    17   14   15 ar
    18   15   16 ar
    19   17   18 1
    20   18   19 2
    21   18   20 1
    22    1   21 1
    23    1   22 1
    24    1   23 1
    25    3   24 1
    26    3   25 1
    27    3   26 1
    28    4   27 1
    29    4   28 1
    30    8   29 1
    31    8   30 1
    32    9   31 1
    33    9   32 1
    34   10   33 1
    35   10   34 1
    36   13   35 1
    37   14   36 1
    38   15   37 1
    39   16   38 1
    40   17   39 1
    41   17   40 1
@<TRIPOS>MOLECULE
ZINC00157770
 24 23 0 0 0
SMALL
NO_CHARGES


@<TRIPOS>ATOM
      1 C           7.034   -11.679    -2.049  C    
      2 C           5.640   -11.473    -1.425  C    
      3 N           5.450   -10.111    -1.041  N    
      4 C           4.340    -9.601    -0.449  C    
      5 N           4.282    -8.294    -0.095  N    
      6 C           5.298    -7.316    -0.334  C    
      7 C           4.865    -5.945     0.224  C    
      8 S           2.967   -10.603    -0.037  S    
      9 C           1.649    -9.600    -0.768  C    
     10 H           7.130   -11.090    -2.966  H    
     11 H           7.175   -12.733    -2.296  H    
     12 H           7.814   -11.376    -1.346  H    
     13 H           4.876   -11.754    -2.161  H    
     14 H           5.542   -12.121    -0.548  H    
     15 H           6.181    -9.489    -1.213  H    
     16 H           6.225    -7.622     0.158  H    
     17 H           5.473    -7.225    -1.410  H    
     18 H           3.940    -5.614    -0.252  H    
     19 H           5.641    -5.200     0.027  H    
     20 H           4.708    -6.002     1.302  H    
     21 H           1.569    -8.652    -0.236  H    
     22 H           0.704   -10.136    -0.665  H    
     23 H           1.845    -9.417    -1.829  H    
     24 H           3.470    -7.996     0.352  H    
@<TRIPOS>BOND
     1    1    2 1
     2    2    3 1
     3    3    4 1
     4    4    5 2
     5    4    8 1
     6    5    6 1
     7    6    7 1
     8    8    9 1
     9    1   10 1
    10    1   11 1
    11    1   12 1
    12    2   13 1
    13    2   14 1
    14    3   15 1
    15    6   16 1
    16    6   17 1
    17    7   18 1
    18    7   19 1
    19    7   20 1
    20    9   21 1
    21    9   22 1
    22    9   23 1
    23    5   24 1
@<TRIPOS>MOLECULE
ZINC00159109
 41 42 0 0 0
SMALL
NO_CHARGES


@<TRIPOS>ATOM
      1 C           5.039    -1.793     1.226  C    
      2 C           4.572    -0.876     0.055  C    
      3 C           5.692     0.168    -0.237  C    
      4 C           4.288    -1.756    -1.201  C    
      5 N           3.358    -0.240     0.511  N    
      6 C           2.579     0.632    -0.112  C    
      7 O           2.861     1.054    -1.223  O    
      8 P           1.241     1.141     0.553  P    
      9 O           0.999     0.368     1.748  O    
     10 C           1.455     2.696     0.920  C    
     11 C           1.526     3.670    -0.110  C    
     12 C           1.741     5.028     0.190  C    
     13 C           1.893     5.441     1.525  C    
     14 C           1.827     4.489     2.558  C    
     15 C           1.606     3.134     2.259  C    
     16 C          -0.053     0.832    -0.359  C    
     17 C          -0.141    -0.368    -1.110  C    
     18 C          -1.278    -0.657    -1.888  C    
     19 C          -2.361     0.238    -1.917  C    
     20 C          -2.303     1.422    -1.162  C    
     21 C          -1.165     1.711    -0.383  C    
     22 H           5.954    -2.331     0.965  H    
     23 H           4.273    -2.531     1.473  H    
     24 H           5.239    -1.201     2.122  H    
     25 H           5.823     0.835     0.619  H    
     26 H           5.447     0.776    -1.110  H    
     27 H           6.645    -0.333    -0.434  H    
     28 H           5.174    -2.336    -1.477  H    
     29 H           4.011    -1.138    -2.058  H    
     30 H           3.468    -2.452    -1.003  H    
     31 H           3.059    -0.508     1.395  H    
     32 H           1.418     3.408    -1.096  H    
     33 H           1.786     5.717    -0.564  H    
     34 H           2.062     6.421     1.741  H    
     35 H           1.942     4.787     3.530  H    
     36 H           1.575     2.471     3.042  H    
     37 H           0.618    -1.055    -1.105  H    
     38 H          -1.320    -1.525    -2.425  H    
     39 H          -3.187     0.024    -2.472  H    
     40 H          -3.096     2.068    -1.169  H    
     41 H          -1.180     2.572     0.175  H    
@<TRIPOS>BOND
     1    1    2 1
     2    2    3 1
     3    2    4 1
     4    2    5 1
     5    5    6 1
     6    6    7 2
     7    6    8 1
     8    8    9 2
     9    8   10 1
    10    8   16 1
    11   10   15 ar
    12   10   11 ar
    13   11   12 ar
    14   12   13 ar
    15   13   14 ar
    16   14   15 ar
    17   16   21 ar
    18   16   17 ar
    19   17   18 ar
    20   18   19 ar
    21   19   20 ar
    22   20   21 ar
    23    1   22 1
    24    1   23 1
    25    1   24 1
    26    3   25 1
    27    3   26 1
    28    3   27 1
    29    4   28 1
    30    4   29 1
    31    4   30 1
    32    5   31 1
    33   11   32 1
    34   12   33 1
    35   13   34 1
    36   14   35 1
    37   15   36 1
    38   17   37 1
    39   18   38 1
    40   19   39 1
    41   20   40 1
    42   21   41 1
@<TRIPOS>MOLECULE
ZINC00172718
 41 44 0 0 0
SMALL
NO_CHARGES


@<TRIPOS>ATOM
      1 C          -4.210     3.600    -4.793  C    
      2 C          -3.588     2.412    -4.366  C    
      3 C          -3.031     2.332    -3.074  C    
      4 C          -3.091     3.442    -2.194  C    
      5 C          -3.720     4.634    -2.637  C    
      6 C          -4.279     4.712    -3.929  C    
      7 C          -2.505     3.368    -0.821  C    
      8 C          -1.277     4.123    -0.599  C    
      9 O          -0.766     4.750    -1.517  O    
     10 N          -0.759     4.095     0.626  N    
     11 C           0.382     4.659     1.148  C    
     12 C           1.418     5.274     0.400  C    
     13 C           2.537     5.827     1.048  C    
     14 C           2.644     5.764     2.448  C    
     15 C           1.642     5.136     3.227  C    
     16 C           0.519     4.586     2.556  C    
     17 C           1.775     5.062     4.639  C    
     18 N           2.724     5.704     5.369  N    
     19 C           2.682     5.500     6.712  C    
     20 C           3.554     6.073     7.660  C    
     21 C           3.384     5.775     9.028  C    
     22 C           2.349     4.908     9.447  C    
     23 C           1.474     4.332     8.502  C    
     24 C           1.659     4.641     7.145  C    
     25 S           0.802     4.154     5.739  S    
     26 H          -4.617     3.658    -5.733  H    
     27 H          -3.538     1.604    -4.994  H    
     28 H          -2.579     1.460    -2.781  H    
     29 H          -3.778     5.449    -2.019  H    
     30 H          -4.734     5.575    -4.238  H    
     31 H          -3.267     3.717    -0.115  H    
     32 H          -2.298     2.325    -0.566  H    
     33 H          -1.297     3.609     1.268  H    
     34 H           1.385     5.323    -0.619  H    
     35 H           3.279     6.270     0.500  H    
     36 H           3.476     6.169     2.890  H    
     37 H          -0.223     4.132     3.095  H    
     38 H           4.305     6.702     7.355  H    
     39 H           4.015     6.188     9.720  H    
     40 H           2.235     4.697    10.443  H    
     41 H           0.719     3.712     8.797  H    
@<TRIPOS>BOND
     1    1    6 ar
     2    1    2 ar
     3    2    3 ar
     4    3    4 ar
     5    4    5 ar
     6    4    7 1
     7    5    6 ar
     8    7    8 1
     9    8    9 2
    10    8   10 1
    11   10   11 1
    12   11   16 ar
    13   11   12 ar
    14   12   13 ar
    15   13   14 ar
    16   14   15 ar
    17   15   16 ar
    18   15   17 1
    19   17   25 1
    20   17   18 2
    21   18   19 1
    22   19   24 ar
    23   19   20 ar
    24   20   21 ar
    25   21   22 ar
    26   22   23 ar
    27   23   24 ar
    28   24   25 1
    29    1   26 1
    30    2   27 1
    31    3   28 1
    32    5   29 1
    33    6   30 1
    34    7   31 1
    35    7   32 1
    36   10   33 1
    37   12   34 1
    38   13   35 1
    39   14   36 1
    40   16   37 1
    41   20   38 1
    42   21   39 1
    43   22   40 1
    44   23   41 1
@<TRIPOS>MOLECULE
ZINC00186438
 36 38 0 0 0
SMALL
NO_CHARGES


@<TRIPOS>ATOM
      1 C           4.867    -0.653     2.540  C    
      2 C           5.328    -1.334     3.686  C    
      3 C           4.444    -1.606     4.747  C    
      4 C           3.100    -1.202     4.657  C    
      5 C           2.639    -0.527     3.508  C    
      6 C           3.514    -0.240     2.428  C    
      7 C           3.094     0.409     1.271  C    
      8 N           1.870     0.759     1.076  N    
      9 N           1.450     1.341     0.028  N    
     10 C           0.179     1.655    -0.169  C    
     11 O          -0.671     1.344     0.662  O    
     12 C          -0.228     2.315    -1.313  C    
     13 C           0.525     2.982    -2.287  C    
     14 C          -0.398     3.451    -3.218  C    
     15 N          -1.615     3.109    -2.778  N    
     16 N          -1.524     2.444    -1.670  N    
     17 C          -0.061     4.237    -4.426  C    
     18 C           1.462     4.203    -4.742  C    
     19 C           2.325     4.331    -3.457  C    
     20 C           1.983     3.225    -2.413  C    
     21 Br          5.062    -2.490     6.263  Br   
     22 H           5.534    -0.465     1.782  H    
     23 H           6.308    -1.632     3.742  H    
     24 H           2.454    -1.404     5.425  H    
     25 H           1.656    -0.244     3.478  H    
     26 H           3.766     0.597     0.554  H    
     27 H           2.094     1.547    -0.672  H    
     28 H          -2.446     3.327    -3.228  H    
     29 H          -0.612     3.837    -5.282  H    
     30 H          -0.383     5.271    -4.263  H    
     31 H           1.705     3.257    -5.237  H    
     32 H           1.709     5.019    -5.430  H    
     33 H           3.384     4.266    -3.722  H    
     34 H           2.143     5.316    -3.011  H    
     35 H           2.383     3.533    -1.443  H    
     36 H           2.461     2.288    -2.709  H    
@<TRIPOS>BOND
     1    1    6 ar
     2    1    2 ar
     3    2    3 ar
     4    3    4 ar
     5    3   21 1
     6    4    5 ar
     7    5    6 ar
     8    6    7 1
     9    7    8 2
    10    8    9 1
    11    9   10 1
    12   10   11 2
    13   10   12 1
    14   12   16 2
    15   12   13 1
    16   13   20 1
    17   13   14 2
    18   14   15 1
    19   14   17 1
    20   15   16 1
    21   17   18 1
    22   18   19 1
    23   19   20 1
    24    1   22 1
    25    2   23 1
    26    4   24 1
    27    5   25 1
    28    7   26 1
    29    9   27 1
    30   15   28 1
    31   17   29 1
    32   17   30 1
    33   18   31 1
    34   18   32 1
    35   19   33 1
    36   19   34 1
    37   20   35 1
    38   20   36 1
@<TRIPOS>MOLECULE
ZINC00196801
 28 28 0 0 0
SMALL
NO_CHARGES


@<TRIPOS>ATOM
      1 C           6.491    -8.817    -1.861  C    
      2 C           6.205    -7.363    -1.412  C    
      3 C           4.954    -7.212    -0.500  C    
      4 C           3.700    -7.596    -1.183  C    
      5 O           3.274    -6.936    -2.284  O    
      6 N           4.853    -5.858    -0.071  N    
      7 S           4.284    -5.426     1.460  S    
      8 O           2.980    -6.274     1.799  O    
      9 O           5.415    -5.713     2.547  O    
     10 C           3.825    -3.747     1.456  C    
     11 C           4.622    -2.773     2.094  C    
     12 C           4.230    -1.422     2.087  C    
     13 C           3.042    -1.033     1.438  C    
     14 C           2.252    -2.000     0.786  C    
     15 C           2.645    -3.352     0.791  C    
     16 Cl          2.577     0.595     1.422  Cl   
     17 O           2.954    -8.627    -0.726  O    
     18 H           6.605    -9.471    -0.993  H    
     19 H           7.413    -8.852    -2.446  H    
     20 H           5.673    -9.192    -2.480  H    
     21 H           7.081    -7.008    -0.861  H    
     22 H           6.098    -6.731    -2.302  H    
     23 H           5.101    -7.856     0.374  H    
     24 H           4.937    -5.159    -0.740  H    
     25 H           5.488    -3.038     2.566  H    
     26 H           4.814    -0.726     2.554  H    
     27 H           1.393    -1.727     0.304  H    
     28 H           2.064    -4.043     0.310  H    
@<TRIPOS>BOND
     1    1    2 1
     2    2    3 1
     3    3    4 1
     4    3    6 1
     5    4    5 2
     6    4   17 1
     7    6    7 1
     8    7    8 2
     9    7    9 2
    10    7   10 1
    11   10   15 ar
    12   10   11 ar
    13   11   12 ar
    14   12   13 ar
    15   13   14 ar
    16   13   16 1
    17   14   15 ar
    18    1   18 1
    19    1   19 1
    20    1   20 1
    21    2   21 1
    22    2   22 1
    23    3   23 1
    24    6   24 1
    25   11   25 1
    26   12   26 1
    27   14   27 1
    28   15   28 1
@<TRIPOS>MOLECULE
ZINC00206865
 48 49 0 0 0
SMALL
NO_CHARGES


@<TRIPOS>ATOM
      1 C           7.466     0.954     0.132  C    
      2 C           7.432     2.511     0.261  C    
      3 C           5.963     3.065     0.275  C    
      4 C           5.292     3.102    -1.134  C    
      5 C           6.252     3.815    -2.136  C    
      6 C           7.648     3.153    -2.119  C    
      7 O           8.211     3.143    -0.790  O    
      8 C           3.818     3.666    -1.158  C    
      9 C           3.658     5.168    -0.726  C    
     10 C           2.225     5.754    -0.800  C    
     11 C           2.857     2.682    -0.530  C    
     12 C           2.280     1.695    -1.375  C    
     13 C           1.354     0.753    -0.893  C    
     14 C           0.969     0.786     0.455  C    
     15 C           1.538     1.737     1.317  C    
     16 C           2.511     2.656     0.855  C    
     17 O           3.054     3.590     1.697  O    
     18 C           3.502     3.206     3.014  C    
     19 C           8.162     2.902     1.580  C    
     20 N           1.697     5.750    -2.167  N    
     21 H           6.958     0.611    -0.773  H    
     22 H           6.970     0.487     0.992  H    
     23 H           8.498     0.592     0.094  H    
     24 H           5.367     2.440     0.940  H    
     25 H           5.969     4.076     0.683  H    
     26 H           5.222     2.068    -1.481  H    
     27 H           5.842     3.762    -3.151  H    
     28 H           6.368     4.869    -1.869  H    
     29 H           7.592     2.139    -2.523  H    
     30 H           8.320     3.723    -2.765  H    
     31 H           3.568     3.704    -2.224  H    
     32 H           4.031     5.318     0.286  H    
     33 H           4.283     5.789    -1.371  H    
     34 H           1.543     5.199    -0.158  H    
     35 H           2.247     6.791    -0.455  H    
     36 H           2.521     1.650    -2.370  H    
     37 H           0.948     0.050    -1.523  H    
     38 H           0.279     0.119     0.810  H    
     39 H           1.241     1.752     2.296  H    
     40 H           2.649     3.055     3.682  H    
     41 H           4.114     4.019     3.412  H    
     42 H           4.107     2.293     2.992  H    
     43 H           7.635     2.501     2.449  H    
     44 H           8.218     3.987     1.682  H    
     45 H           9.183     2.511     1.587  H    
     46 H           2.346     6.241    -2.784  H    
     47 H           0.793     6.220    -2.186  H    
     48 H           1.584     4.789    -2.491  H    
@<TRIPOS>BOND
     1    1    2 1
     2    2    7 1
     3    2    3 1
     4    2   19 1
     5    3    4 1
     6    4    5 1
     7    4    8 1
     8    5    6 1
     9    6    7 1
    10    8    9 1
    11    8   11 1
    12    9   10 1
    13   10   20 1
    14   11   16 ar
    15   11   12 ar
    16   12   13 ar
    17   13   14 ar
    18   14   15 ar
    19   15   16 ar
    20   16   17 1
    21   17   18 1
    22    1   21 1
    23    1   22 1
    24    1   23 1
    25    3   24 1
    26    3   25 1
    27    4   26 1
    28    5   27 1
    29    5   28 1
    30    6   29 1
    31    6   30 1
    32    8   31 1
    33    9   32 1
    34    9   33 1
    35   10   34 1
    36   10   35 1
    37   12   36 1
    38   13   37 1
    39   14   38 1
    40   15   39 1
    41   18   40 1
    42   18   41 1
    43   18   42 1
    44   19   43 1
    45   19   44 1
    46   19   45 1
    47   20   46 1
    48   20   47 1
    49   20   48 1
@<TRIPOS>MOLECULE
ZINC00215218
 35 37 0 0 0
SMALL
NO_CHARGES


@<TRIPOS>ATOM
      1 C           3.376    -9.940     2.431  C    
      2 O           3.648    -8.618     1.932  O    
      3 C           4.337    -8.610     0.747  C    
      4 C           3.606    -8.723    -0.456  C    
      5 C           4.262    -8.670    -1.698  C    
      6 C           5.654    -8.485    -1.746  C    
      7 C           6.386    -8.349    -0.554  C    
      8 C           5.742    -8.401     0.706  C    
      9 C           6.555    -8.215     1.938  C    
     10 N           7.022    -6.872     2.003  N    
     11 S           7.127    -6.022     3.454  S    
     12 O           8.046    -6.812     4.484  O    
     13 O           7.929    -4.689     3.120  O    
     14 C           5.599    -5.528     4.132  C    
     15 C           4.431    -5.518     3.336  C    
     16 C           3.190    -5.130     3.884  C    
     17 C           3.101    -4.740     5.234  C    
     18 C           4.266    -4.741     6.019  C    
     19 C           5.493    -5.127     5.481  C    
     20 N           6.440    -5.051     6.375  N    
     21 S           5.909    -4.532     7.853  S    
     22 N           4.365    -4.405     7.274  N    
     23 H           2.723   -10.493     1.751  H    
     24 H           2.865    -9.842     3.388  H    
     25 H           4.298   -10.505     2.591  H    
     26 H           2.591    -8.840    -0.430  H    
     27 H           3.727    -8.757    -2.564  H    
     28 H           6.132    -8.441    -2.649  H    
     29 H           7.398    -8.204    -0.612  H    
     30 H           5.980    -8.456     2.834  H    
     31 H           7.415    -8.887     1.916  H    
     32 H           7.458    -6.497     1.222  H    
     33 H           4.473    -5.790     2.352  H    
     34 H           2.352    -5.131     3.298  H    
     35 H           2.203    -4.457     5.634  H    
@<TRIPOS>BOND
     1    1    2 1
     2    2    3 1
     3    3    8 ar
     4    3    4 ar
     5    4    5 ar
     6    5    6 ar
     7    6    7 ar
     8    7    8 ar
     9    8    9 1
    10    9   10 1
    11   10   11 1
    12   11   12 2
    13   11   13 2
    14   11   14 1
    15   14   19 ar
    16   14   15 ar
    17   15   16 ar
    18   16   17 ar
    19   17   18 ar
    20   18   22 2
    21   18   19 ar
    22   19   20 2
    23   20   21 1
    24   21   22 1
    25    1   23 1
    26    1   24 1
    27    1   25 1
    28    4   26 1
    29    5   27 1
    30    6   28 1
    31    7   29 1
    32    9   30 1
    33    9   31 1
    34   10   32 1
    35   15   33 1
    36   16   34 1
    37   17   35 1
@<TRIPOS>MOLECULE
ZINC00232486
 29 30 0 0 0
SMALL
NO_CHARGES


@<TRIPOS>ATOM
      1 C           7.304   -10.761    -0.274  C    
      2 C           7.680    -9.429    -0.020  C    
      3 C           6.721    -8.659     0.664  C    
      4 S           5.379    -9.703     0.945  S    
      5 C           6.036   -11.104     0.198  C    
      6 C           6.825    -7.327     1.045  C    
      7 O           7.855    -6.712     0.795  O    
      8 N           5.821    -6.730     1.668  N    
      9 N           5.852    -5.522     2.050  N    
     10 C           4.890    -4.891     2.624  C    
     11 C           4.999    -3.560     3.020  C    
     12 C           6.201    -2.823     2.900  C    
     13 C           6.277    -1.479     3.302  C    
     14 C           5.151    -0.813     3.841  C    
     15 C           3.949    -1.549     3.966  C    
     16 C           3.874    -2.895     3.567  C    
     17 C           5.194     0.614     4.270  C    
     18 F           4.283     1.349     3.549  F    
     19 F           4.876     0.714     5.604  F    
     20 F           6.418     1.221     4.105  F    
     21 H           7.915   -11.423    -0.764  H    
     22 H           8.586    -9.057    -0.315  H    
     23 H           5.585   -12.017     0.114  H    
     24 H           5.014    -7.246     1.840  H    
     25 H           4.032    -5.373     2.775  H    
     26 H           7.046    -3.261     2.516  H    
     27 H           7.168    -0.991     3.195  H    
     28 H           3.113    -1.104     4.352  H    
     29 H           2.982    -3.386     3.677  H    
@<TRIPOS>BOND
     1    1    5 2
     2    1    2 1
     3    2    3 2
     4    3    4 1
     5    3    6 1
     6    4    5 1
     7    6    7 2
     8    6    8 1
     9    8    9 1
    10    9   10 2
    11   10   11 1
    12   11   16 ar
    13   11   12 ar
    14   12   13 ar
    15   13   14 ar
    16   14   15 ar
    17   14   17 1
    18   15   16 ar
    19   17   18 1
    20   17   19 1
    21   17   20 1
    22    1   21 1
    23    2   22 1
    24    5   23 1
    25    8   24 1
    26   10   25 1
    27   12   26 1
    28   13   27 1
    29   15   28 1
    30   16   29 1
@<TRIPOS>MOLECULE
ZINC00242153
 36 37 0 0 0
SMALL
NO_CHARGES


@<TRIPOS>ATOM
      1 C           4.165    -9.684    -1.256  C    
      2 C           5.001    -8.936    -0.282  C    
      3 C           5.904    -9.598     0.577  C    
      4 C           6.679    -8.871     1.496  C    
      5 C           6.545    -7.476     1.579  C    
      6 C           5.652    -6.769     0.737  C    
      7 C           4.891    -7.527    -0.196  C    
      8 C           5.523    -5.377     0.809  C    
      9 O           5.122    -4.773    -0.184  O    
     10 N           5.830    -4.725     1.930  N    
     11 C           5.810    -3.392     2.263  C    
     12 C           5.564    -2.309     1.382  C    
     13 C           5.563    -0.986     1.852  C    
     14 C           5.819    -0.717     3.206  C    
     15 C           6.084    -1.769     4.117  C    
     16 C           6.069    -3.096     3.622  C    
     17 N           6.361    -1.634     5.454  N    
     18 C           6.505    -0.558     6.222  C    
     19 O           6.399     0.590     5.811  O    
     20 C           6.822    -0.757     7.618  C    
     21 H           3.110    -9.532    -1.022  H    
     22 H           4.370   -10.757    -1.234  H    
     23 H           4.358    -9.320    -2.267  H    
     24 H           6.008   -10.614     0.541  H    
     25 H           7.333    -9.357     2.110  H    
     26 H           7.139    -6.977     2.247  H    
     27 H           4.230    -7.051    -0.812  H    
     28 H           6.092    -5.304     2.660  H    
     29 H           5.387    -2.456     0.389  H    
     30 H           5.384    -0.213     1.207  H    
     31 H           5.803     0.258     3.504  H    
     32 H           6.248    -3.868     4.272  H    
     33 H           6.483    -2.474     5.919  H    
     34 H           6.039    -1.346     8.099  H    
     35 H           6.907     0.193     8.150  H    
     36 H           7.772    -1.286     7.712  H    
@<TRIPOS>BOND
     1    1    2 1
     2    2    7 ar
     3    2    3 ar
     4    3    4 ar
     5    4    5 ar
     6    5    6 ar
     7    6    7 ar
     8    6    8 1
     9    8    9 2
    10    8   10 1
    11   10   11 1
    12   11   16 ar
    13   11   12 ar
    14   12   13 ar
    15   13   14 ar
    16   14   15 ar
    17   15   16 ar
    18   15   17 1
    19   17   18 1
    20   18   19 2
    21   18   20 1
    22    1   21 1
    23    1   22 1
    24    1   23 1
    25    3   24 1
    26    4   25 1
    27    5   26 1
    28    7   27 1
    29   10   28 1
    30   12   29 1
    31   13   30 1
    32   14   31 1
    33   16   32 1
    34   17   33 1
    35   20   34 1
    36   20   35 1
    37   20   36 1
@<TRIPOS>MOLECULE
ZINC00250421
 41 42 0 0 0
SMALL
NO_CHARGES


@<TRIPOS>ATOM
      1 C           7.582    -9.427    -0.349  C    
      2 C           5.295   -10.003    -1.109  C    
      3 C           3.787    -9.948    -0.758  C    
      4 C           3.317    -8.490    -0.531  C    
      5 C           4.209    -7.765     0.512  C    
      6 C           5.706    -7.867     0.104  C    
      7 O           3.763    -6.401     0.614  O    
      8 C           4.091    -5.475     1.554  C    
      9 O           4.915    -5.803     2.579  O    
     10 C           3.461    -4.143     1.463  C    
     11 C           3.865    -3.187     2.529  C    
     12 C           2.967    -2.809     3.555  C    
     13 C           3.362    -1.901     4.557  C    
     14 C           4.658    -1.345     4.564  C    
     15 C           5.557    -1.721     3.535  C    
     16 C           5.164    -2.627     2.532  C    
     17 O           4.929    -0.483     5.604  O    
     18 C           6.150     0.279     5.629  C    
     19 N           6.122    -9.293    -0.082  N    
     20 H           7.861   -10.479    -0.422  H    
     21 H           8.155    -8.995     0.474  H    
     22 H           7.863    -8.922    -1.278  H    
     23 H           5.589   -11.055    -1.161  H    
     24 H           5.455    -9.563    -2.099  H    
     25 H           3.206   -10.397    -1.569  H    
     26 H           3.608   -10.531     0.150  H    
     27 H           3.346    -7.946    -1.480  H    
     28 H           2.282    -8.498    -0.182  H    
     29 H           4.067    -8.249     1.484  H    
     30 H           5.874    -7.295    -0.816  H    
     31 H           6.309    -7.416     0.896  H    
     32 H           3.705    -3.705     0.491  H    
     33 H           2.379    -4.293     1.480  H    
     34 H           2.021    -3.195     3.586  H    
     35 H           2.694    -1.649     5.291  H    
     36 H           6.504    -1.339     3.509  H    
     37 H           5.834    -2.881     1.800  H    
     38 H           7.017    -0.380     5.713  H    
     39 H           6.125     0.933     6.500  H    
     40 H           6.245     0.899     4.732  H    
     41 H           5.949    -9.765     0.806  H    
@<TRIPOS>BOND
     1    1   19 1
     2    2    3 1
     3    2   19 1
     4    3    4 1
     5    4    5 1
     6    5    6 1
     7    5    7 1
     8    6   19 1
     9    7    8 1
    10    8    9 2
    11    8   10 1
    12   10   11 1
    13   11   16 ar
    14   11   12 ar
    15   12   13 ar
    16   13   14 ar
    17   14   15 ar
    18   14   17 1
    19   15   16 ar
    20   17   18 1
    21    1   20 1
    22    1   21 1
    23    1   22 1
    24    2   23 1
    25    2   24 1
    26    3   25 1
    27    3   26 1
    28    4   27 1
    29    4   28 1
    30    5   29 1
    31    6   30 1
    32    6   31 1
    33   10   32 1
    34   10   33 1
    35   12   34 1
    36   13   35 1
    37   15   36 1
    38   16   37 1
    39   18   38 1
    40   18   39 1
    41   18   40 1
    42   19   41 1
@<TRIPOS>MOLECULE
ZINC00251226
 37 39 0 0 0
SMALL
NO_CHARGES


@<TRIPOS>ATOM
      1 C           7.355    -9.273    -0.014  C    
      2 C           6.109    -9.663     0.686  C    
      3 C           5.467   -10.899     0.437  C    
      4 C           4.285   -11.256     1.120  C    
      5 C           3.695   -10.389     2.077  C    
      6 C           4.334    -9.157     2.326  C    
      7 C           5.513    -8.815     1.636  C    
      8 S           5.978    -7.262     2.204  S    
      9 C           4.661    -7.104     3.302  C    
     10 N           3.898    -8.218     3.208  N    
     11 N           4.388    -6.070     4.123  N    
     12 N           5.153    -5.017     4.209  N    
     13 C           4.898    -3.983     4.994  C    
     14 O           3.892    -3.959     5.696  O    
     15 C           5.779    -2.958     5.045  C    
     16 C           5.388    -1.664     5.002  C    
     17 O           6.269    -0.640     4.950  O    
     18 C           7.608    -0.908     5.426  C    
     19 C           8.073    -2.289     4.906  C    
     20 O           7.080    -3.280     5.248  O    
     21 O           2.560   -10.653     2.811  O    
     22 C           1.667   -11.721     2.438  C    
     23 H           7.187    -8.346    -0.564  H    
     24 H           7.686   -10.035    -0.721  H    
     25 H           8.154    -9.115     0.715  H    
     26 H           5.859   -11.549    -0.249  H    
     27 H           3.869   -12.166     0.912  H    
     28 H           3.598    -6.122     4.683  H    
     29 H           5.956    -4.997     3.668  H    
     30 H           4.430    -1.432     4.886  H    
     31 H           8.277    -0.124     5.072  H    
     32 H           7.611    -0.903     6.519  H    
     33 H           8.191    -2.259     3.819  H    
     34 H           9.033    -2.562     5.354  H    
     35 H           1.358   -11.629     1.387  H    
     36 H           0.773   -11.657     3.063  H    
     37 H           2.140   -12.692     2.605  H    
@<TRIPOS>BOND
     1    1    2 1
     2    2    7 ar
     3    2    3 ar
     4    3    4 ar
     5    4    5 ar
     6    5    6 ar
     7    5   21 1
     8    6   10 1
     9    6    7 ar
    10    7    8 1
    11    8    9 1
    12    9   10 2
    13    9   11 1
    14   11   12 1
    15   12   13 1
    16   13   14 2
    17   13   15 1
    18   15   20 1
    19   15   16 2
    20   16   17 1
    21   17   18 1
    22   18   19 1
    23   19   20 1
    24   21   22 1
    25    1   23 1
    26    1   24 1
    27    1   25 1
    28    3   26 1
    29    4   27 1
    30   11   28 1
    31   12   29 1
    32   16   30 1
    33   18   31 1
    34   18   32 1
    35   19   33 1
    36   19   34 1
    37   22   35 1
    38   22   36 1
    39   22   37 1
@<TRIPOS>MOLECULE
ZINC00260853
 39 40 0 0 0
SMALL
NO_CHARGES


@<TRIPOS>ATOM
      1 C           1.594     4.389     8.625  C    
      2 C           1.046     4.574     7.191  C    
      3 C           1.993     4.685     6.031  C    
      4 C           3.393     4.613     6.235  C    
      5 C           4.289     4.675     5.161  C    
      6 C           3.806     4.857     3.860  C    
      7 C           2.420     4.968     3.607  C    
      8 C           1.498     4.808     4.691  C    
      9 N           0.139     4.766     4.547  N    
     10 C          -0.627     4.356     3.535  C    
     11 S          -0.226     2.940     2.667  S    
     12 N          -1.888     4.695     3.559  N    
     13 C          -2.785     4.170     4.498  C    
     14 C          -4.181     4.442     3.911  C    
     15 C          -3.949     5.654     3.001  C    
     16 C          -2.478     5.486     2.553  C    
     17 C          -1.819     6.799     2.335  C    
     18 O          -1.603     7.648     3.365  O    
     19 C           2.043     5.363     2.224  C    
     20 O          -1.345     7.135     1.112  O    
     21 H           2.172     3.467     8.696  H    
     22 H           0.764     4.332     9.331  H    
     23 H           2.224     5.234     8.905  H    
     24 H           0.386     3.726     7.001  H    
     25 H           0.431     5.478     7.204  H    
     26 H           3.790     4.504     7.169  H    
     27 H           5.296     4.616     5.329  H    
     28 H           4.485     4.946     3.098  H    
     29 H          -0.361     4.936     5.357  H    
     30 H          -2.652     3.092     4.649  H    
     31 H          -2.663     4.683     5.459  H    
     32 H          -4.513     3.588     3.314  H    
     33 H          -4.918     4.647     4.689  H    
     34 H          -4.637     5.658     2.149  H    
     35 H          -4.096     6.570     3.582  H    
     36 H          -2.466     4.920     1.610  H    
     37 H           2.733     6.112     1.835  H    
     38 H           1.053     5.808     2.174  H    
     39 H           2.080     4.494     1.571  H    
@<TRIPOS>BOND
     1    1    2 1
     2    2    3 1
     3    3    8 ar
     4    3    4 ar
     5    4    5 ar
     6    5    6 ar
     7    6    7 ar
     8    7    8 ar
     9    7   19 1
    10    8    9 1
    11    9   10 1
    12   10   11 2
    13   10   12 1
    14   12   16 1
    15   12   13 1
    16   13   14 1
    17   14   15 1
    18   15   16 1
    19   16   17 1
    20   17   18 2
    21   17   20 1
    22    1   21 1
    23    1   22 1
    24    1   23 1
    25    2   24 1
    26    2   25 1
    27    4   26 1
    28    5   27 1
    29    6   28 1
    30    9   29 1
    31   13   30 1
    32   13   31 1
    33   14   32 1
    34   14   33 1
    35   15   34 1
    36   15   35 1
    37   16   36 1
    38   19   37 1
    39   19   38 1
    40   19   39 1
@<TRIPOS>MOLECULE
ZINC00260890
 38 40 0 0 0
SMALL
NO_CHARGES


@<TRIPOS>ATOM
      1 C           5.371    -4.589    -0.653  C    
      2 C           4.087    -3.973    -0.044  C    
      3 N           3.160    -4.983     0.473  N    
      4 C           3.569    -5.843     1.510  C    
      5 C           4.462    -5.440     2.538  C    
      6 C           4.929    -6.323     3.546  C    
      7 C           4.447    -7.653     3.524  C    
      8 C           3.529    -8.074     2.553  C    
      9 C           3.085    -7.179     1.562  C    
     10 S           1.902    -7.755     0.417  S    
     11 C           1.024    -6.181     0.325  C    
     12 C           1.952    -5.152    -0.110  C    
     13 O           1.578    -4.473    -1.061  O    
     14 C           5.828    -5.884     4.524  C    
     15 O           5.924    -4.687     4.770  O    
     16 N           6.603    -6.741     5.177  N    
     17 C           7.573    -6.399     6.165  C    
     18 C           8.255    -7.616     6.619  C    
     19 C           9.576    -7.977     6.358  C    
     20 C           9.785    -9.212     6.949  C    
     21 C           8.590    -9.570     7.564  C    
     22 O           7.669    -8.597     7.352  O    
     23 H           5.939    -5.136     0.099  H    
     24 H           6.004    -3.795    -1.052  H    
     25 H           5.109    -5.270    -1.465  H    
     26 H           4.356    -3.270     0.744  H    
     27 H           3.647    -3.348    -0.822  H    
     28 H           4.794    -4.479     2.550  H    
     29 H           4.731    -8.326     4.238  H    
     30 H           3.178    -9.035     2.585  H    
     31 H           0.179    -6.294    -0.364  H    
     32 H           0.626    -5.924     1.311  H    
     33 H           6.529    -7.676     4.940  H    
     34 H           8.296    -5.698     5.746  H    
     35 H           7.081    -5.927     7.021  H    
     36 H          10.260    -7.443     5.820  H    
     37 H          10.651    -9.757     6.933  H    
     38 H           8.429   -10.436     8.086  H    
@<TRIPOS>BOND
     1    1    2 1
     2    2    3 1
     3    3   12 1
     4    3    4 1
     5    4    9 ar
     6    4    5 ar
     7    5    6 ar
     8    6    7 ar
     9    6   14 1
    10    7    8 ar
    11    8    9 ar
    12    9   10 1
    13   10   11 1
    14   11   12 1
    15   12   13 2
    16   14   15 2
    17   14   16 1
    18   16   17 1
    19   17   18 1
    20   18   22 1
    21   18   19 2
    22   19   20 1
    23   20   21 2
    24   21   22 1
    25    1   23 1
    26    1   24 1
    27    1   25 1
    28    2   26 1
    29    2   27 1
    30    5   28 1
    31    7   29 1
    32    8   30 1
    33   11   31 1
    34   11   32 1
    35   16   33 1
    36   17   34 1
    37   17   35 1
    38   19   36 1
    39   20   37 1
    40   21   38 1
@<TRIPOS>MOLECULE
ZINC00265548
 30 31 0 0 0
SMALL
NO_CHARGES


@<TRIPOS>ATOM
      1 C           4.301    -6.588     2.175  C    
      2 C           4.475    -5.316     1.608  C    
      3 C           3.644    -4.896     0.549  C    
      4 C           2.622    -5.735     0.026  C    
      5 C           2.473    -7.019     0.619  C    
      6 C           3.295    -7.439     1.685  C    
      7 C           1.815    -5.251    -1.022  C    
      8 C           0.904    -5.945    -1.735  C    
      9 C           0.162    -5.424    -2.790  C    
     10 O           0.348    -4.155    -3.222  O    
     11 O          -0.774    -6.129    -3.482  O    
     12 N          -1.151    -7.330    -3.254  N    
     13 C          -2.009    -8.016    -3.920  C    
     14 C          -2.665    -7.529    -5.038  C    
     15 C          -3.539    -8.309    -5.709  C    
     16 C          -3.800    -9.586    -5.274  C    
     17 O          -4.591   -10.292    -5.884  O    
     18 C          -3.174   -10.070    -4.147  C    
     19 C          -2.289    -9.296    -3.482  C    
     20 H           4.905    -6.896     2.942  H    
     21 H           5.206    -4.693     1.964  H    
     22 H           3.794    -3.960     0.161  H    
     23 H           1.753    -7.669     0.297  H    
     24 H           3.164    -8.364     2.104  H    
     25 H           1.941    -4.296    -1.273  H    
     26 H           0.753    -6.899    -1.522  H    
     27 H          -2.480    -6.609    -5.370  H    
     28 H          -3.993    -7.956    -6.522  H    
     29 H          -3.371   -10.989    -3.821  H    
     30 H          -1.833    -9.665    -2.674  H    
@<TRIPOS>BOND
     1    1    6 ar
     2    1    2 ar
     3    2    3 ar
     4    3    4 ar
     5    4    5 ar
     6    4    7 1
     7    5    6 ar
     8    7    8 2
     9    8    9 1
    10    9   10 2
    11    9   11 1
    12   11   12 1
    13   12   13 2
    14   13   19 1
    15   13   14 1
    16   14   15 2
    17   15   16 1
    18   16   17 2
    19   16   18 1
    20   18   19 2
    21    1   20 1
    22    2   21 1
    23    3   22 1
    24    5   23 1
    25    6   24 1
    26    7   25 1
    27    8   26 1
    28   14   27 1
    29   15   28 1
    30   18   29 1
    31   19   30 1
@<TRIPOS>MOLECULE
ZINC00265558
 33 34 0 0 0
SMALL
NO_CHARGES


@<TRIPOS>ATOM
      1 C           0.392    -7.631    -1.302  C    
      2 C           0.824    -8.044    -2.637  C    
      3 C           1.266    -9.316    -2.825  C    
      4 C           1.686    -9.750    -4.055  C    
      5 O           2.076   -10.901    -4.202  O    
      6 C           1.669    -8.895    -5.119  C    
      7 C           1.236    -7.628    -4.964  C    
      8 C           0.801    -7.172    -3.736  C    
      9 N           0.406    -5.946    -3.730  N    
     10 O          -0.053    -5.224    -2.786  O    
     11 C          -0.422    -3.923    -2.929  C    
     12 O          -0.305    -3.359    -4.156  O    
     13 C          -0.936    -3.188    -1.822  C    
     14 C          -1.315    -3.875    -0.640  C    
     15 C          -1.859    -3.191     0.461  C    
     16 C          -2.039    -1.801     0.404  C    
     17 C          -1.664    -1.096    -0.751  C    
     18 C          -1.098    -1.773    -1.854  C    
     19 O          -0.761    -1.018    -2.948  O    
     20 C           0.575    -0.485    -2.886  C    
     21 H           0.995    -6.787    -0.963  H    
     22 H           0.488    -8.419    -0.550  H    
     23 H          -0.658    -7.337    -1.330  H    
     24 H           1.292    -9.958    -2.064  H    
     25 H           1.977    -9.202    -6.014  H    
     26 H           1.238    -7.028    -5.760  H    
     27 H          -1.217    -4.891    -0.569  H    
     28 H          -2.133    -3.708     1.301  H    
     29 H          -2.442    -1.303     1.201  H    
     30 H          -1.799    -0.083    -0.785  H    
     31 H           0.698     0.189    -2.035  H    
     32 H           0.756     0.084    -3.797  H    
     33 H           1.319    -1.282    -2.828  H    
@<TRIPOS>BOND
     1    1    2 1
     2    2    8 1
     3    2    3 2
     4    3    4 1
     5    4    5 2
     6    4    6 1
     7    6    7 2
     8    7    8 1
     9    8    9 2
    10    9   10 1
    11   10   11 1
    12   11   12 2
    13   11   13 1
    14   13   18 ar
    15   13   14 ar
    16   14   15 ar
    17   15   16 ar
    18   16   17 ar
    19   17   18 ar
    20   18   19 1
    21   19   20 1
    22    1   21 1
    23    1   22 1
    24    1   23 1
    25    3   24 1
    26    6   25 1
    27    7   26 1
    28   14   27 1
    29   15   28 1
    30   16   29 1
    31   17   30 1
    32   20   31 1
    33   20   32 1
    34   20   33 1
@<TRIPOS>MOLECULE
ZINC00280731
 29 30 0 0 0
SMALL
NO_CHARGES


@<TRIPOS>ATOM
      1 C           6.949    -8.752     2.701  C    
      2 C           6.200    -9.065     1.470  C    
      3 C           5.203    -8.340     0.797  C    
      4 C           4.780    -9.171    -0.243  C    
      5 C           5.533   -10.332    -0.198  C    
      6 O           6.384   -10.256     0.846  O    
      7 C           4.701    -7.066     1.038  C    
      8 O           3.591    -6.787     0.609  O    
      9 N           5.452    -6.149     1.636  N    
     10 N           5.187    -4.938     1.953  N    
     11 C           4.152    -4.179     1.942  C    
     12 C           4.163    -2.847     2.376  C    
     13 C           5.381    -2.150     2.643  C    
     14 C           5.374    -0.811     3.078  C    
     15 C           4.162    -0.135     3.260  C    
     16 C           2.950    -0.795     3.002  C    
     17 C           2.939    -2.136     2.562  C    
     18 Cl          1.397    -2.810     2.303  Cl   
     19 F           6.558    -2.693     2.482  F    
     20 H           6.883    -9.600     3.382  H    
     21 H           6.554    -7.880     3.218  H    
     22 H           7.995    -8.579     2.455  H    
     23 H           4.063    -8.961    -0.941  H    
     24 H           5.456   -11.121    -0.843  H    
     25 H           6.357    -6.426     1.845  H    
     26 H           3.301    -4.579     1.645  H    
     27 H           6.255    -0.321     3.262  H    
     28 H           4.160     0.838     3.578  H    
     29 H           2.073    -0.288     3.142  H    
@<TRIPOS>BOND
     1    1    2 1
     2    2    6 1
     3    2    3 2
     4    3    4 1
     5    3    7 1
     6    4    5 2
     7    5    6 1
     8    7    8 2
     9    7    9 1
    10    9   10 1
    11   10   11 2
    12   11   12 1
    13   12   17 ar
    14   12   13 ar
    15   13   14 ar
    16   13   19 1
    17   14   15 ar
    18   15   16 ar
    19   16   17 ar
    20   17   18 1
    21    1   20 1
    22    1   21 1
    23    1   22 1
    24    4   23 1
    25    5   24 1
    26    9   25 1
    27   11   26 1
    28   14   27 1
    29   15   28 1
    30   16   29 1
@<TRIPOS>MOLECULE
ZINC00285713
 24 24 0 0 0
SMALL
NO_CHARGES


@<TRIPOS>ATOM
      1 C           5.209    -9.505    -0.274  C    
      2 C           5.580    -8.006    -0.369  C    
      3 C           4.394    -7.138    -0.284  C    
      4 N           4.146    -6.241     0.682  N    
      5 N           3.023    -5.651     0.445  N    
      6 C           2.534    -6.169    -0.697  C    
      7 N           3.384    -7.095    -1.164  N    
      8 S           1.057    -5.760    -1.521  S    
      9 C           0.321    -4.634    -0.303  C    
     10 C          -0.987    -4.084    -0.710  C    
     11 O          -1.573    -4.423    -1.887  O    
     12 O          -1.604    -3.213     0.135  O    
     13 C          -2.860    -2.565    -0.090  C    
     14 H           4.704    -9.708     0.680  H    
     15 H           6.119   -10.114    -0.323  H    
     16 H           4.549    -9.796    -1.098  H    
     17 H           6.275    -7.761     0.444  H    
     18 H           6.087    -7.814    -1.321  H    
     19 H           4.723    -6.063     1.441  H    
     20 H           0.189    -5.173     0.637  H    
     21 H           1.006    -3.800    -0.139  H    
     22 H          -2.802    -1.926    -0.975  H    
     23 H          -3.101    -1.948     0.778  H    
     24 H          -3.652    -3.308    -0.227  H    
@<TRIPOS>BOND
     1    1    2 1
     2    2    3 1
     3    3    7 2
     4    3    4 1
     5    4    5 1
     6    5    6 2
     7    6    7 1
     8    6    8 1
     9    8    9 1
    10    9   10 1
    11   10   11 2
    12   10   12 1
    13   12   13 1
    14    1   14 1
    15    1   15 1
    16    1   16 1
    17    2   17 1
    18    2   18 1
    19    4   19 1
    20    9   20 1
    21    9   21 1
    22   13   22 1
    23   13   23 1
    24   13   24 1
@<TRIPOS>MOLECULE
ZINC00293264
 37 39 0 0 0
SMALL
NO_CHARGES


@<TRIPOS>ATOM
      1 C           3.126     7.652    -5.287  C    
      2 O           1.868     7.091    -4.872  O    
      3 C           1.911     6.517    -3.627  C    
      4 C           2.292     5.169    -3.534  C    
      5 C           2.327     4.523    -2.291  C    
      6 C           1.989     5.210    -1.102  C    
      7 C           1.559     6.569    -1.185  C    
      8 C           1.518     7.220    -2.460  C    
      9 C           1.082     8.564    -2.548  C    
     10 C           0.704     9.274    -1.398  C    
     11 C           0.759     8.653    -0.143  C    
     12 C           1.183     7.318    -0.038  C    
     13 C           1.986     4.489     0.087  C    
     14 N           2.929     3.683     0.540  N    
     15 C           4.227     3.382     0.286  C    
     16 C           5.068     4.123    -0.567  C    
     17 C           6.401     3.737    -0.761  C    
     18 C           6.930     2.611    -0.099  C    
     19 C           6.118     1.849     0.793  C    
     20 C           4.771     2.274     0.966  C    
     21 N           6.563     0.748     1.478  N    
     22 O           5.863     0.118     2.227  O    
     23 O           7.770     0.269     1.390  O    
     24 Cl          8.560     2.277    -0.445  Cl   
     25 H           3.903     6.886    -5.353  H    
     26 H           3.451     8.442    -4.606  H    
     27 H           2.993     8.088    -6.278  H    
     28 H           2.541     4.648    -4.378  H    
     29 H           2.591     3.534    -2.268  H    
     30 H           1.034     9.045    -3.450  H    
     31 H           0.393    10.245    -1.474  H    
     32 H           0.490     9.173     0.695  H    
     33 H           1.218     6.907     0.897  H    
     34 H           1.159     4.522     0.633  H    
     35 H           4.732     4.967    -1.031  H    
     36 H           6.988     4.295    -1.388  H    
     37 H           4.154     1.755     1.597  H    
@<TRIPOS>BOND
     1    1    2 1
     2    2    3 1
     3    3    8 ar
     4    3    4 ar
     5    4    5 ar
     6    5    6 ar
     7    6    7 ar
     8    6   13 1
     9    7   12 ar
    10    7    8 ar
    11    8    9 ar
    12    9   10 ar
    13   10   11 ar
    14   11   12 ar
    15   13   14 2
    16   14   15 1
    17   15   20 ar
    18   15   16 ar
    19   16   17 ar
    20   17   18 ar
    21   18   19 ar
    22   18   24 1
    23   19   20 ar
    24   19   21 1
    25   21   22 2
    26   21   23 1
    27    1   25 1
    28    1   26 1
    29    1   27 1
    30    4   28 1
    31    5   29 1
    32    9   30 1
    33   10   31 1
    34   11   32 1
    35   12   33 1
    36   13   34 1
    37   16   35 1
    38   17   36 1
    39   20   37 1
@<TRIPOS>MOLECULE
ZINC00293851
 48 50 0 0 0
SMALL
NO_CHARGES


@<TRIPOS>ATOM
      1 C           6.827    -9.550    -4.024  C    
      2 O           6.333    -9.954    -2.730  O    
      3 C           6.167    -8.901    -1.872  C    
      4 C           7.159    -8.639    -0.908  C    
      5 C           7.008    -7.571    -0.006  C    
      6 C           5.862    -6.742    -0.057  C    
      7 C           4.861    -7.024    -1.017  C    
      8 C           4.993    -8.116    -1.904  C    
      9 O           4.010    -8.378    -2.825  O    
     10 C           2.988    -9.259    -2.322  C    
     11 C           5.707    -5.587     0.868  C    
     12 C           4.173    -4.349     2.384  C    
     13 C           2.839    -4.396     3.176  C    
     14 N           2.824    -5.547     4.069  N    
     15 C           3.054    -6.817     3.400  C    
     16 C           4.416    -6.796     2.660  C    
     17 C           2.616    -5.434     5.428  C    
     18 C           1.814    -4.395     5.977  C    
     19 C           1.601    -4.268     7.362  C    
     20 C           2.184    -5.185     8.250  C    
     21 C           2.982    -6.229     7.748  C    
     22 C           3.190    -6.347     6.358  C    
     23 Cl          3.708    -7.324     8.821  Cl   
     24 N           4.458    -5.649     1.697  N    
     25 H           6.124    -8.871    -4.521  H    
     26 H           6.937   -10.444    -4.635  H    
     27 H           7.807    -9.066    -3.944  H    
     28 H           7.997    -9.223    -0.865  H    
     29 H           7.744    -7.398     0.679  H    
     30 H           4.022    -6.437    -1.072  H    
     31 H           3.405   -10.229    -2.029  H    
     32 H           2.259    -9.427    -3.116  H    
     33 H           2.468    -8.815    -1.470  H    
     34 H           6.577    -5.487     1.525  H    
     35 H           5.682    -4.691     0.239  H    
     36 H           4.096    -3.544     1.643  H    
     37 H           4.988    -4.097     3.073  H    
     38 H           2.758    -3.436     3.689  H    
     39 H           2.000    -4.468     2.478  H    
     40 H           3.016    -7.688     4.056  H    
     41 H           2.261    -6.969     2.662  H    
     42 H           5.229    -6.723     3.389  H    
     43 H           4.522    -7.741     2.124  H    
     44 H           1.318    -3.738     5.370  H    
     45 H           1.011    -3.515     7.723  H    
     46 H           2.027    -5.089     9.258  H    
     47 H           3.821    -7.084     6.040  H    
     48 H           3.685    -5.795     1.044  H    
@<TRIPOS>BOND
     1    1    2 1
     2    2    3 1
     3    3    8 ar
     4    3    4 ar
     5    4    5 ar
     6    5    6 ar
     7    6    7 ar
     8    6   11 1
     9    7    8 ar
    10    8    9 1
    11    9   10 1
    12   11   24 1
    13   12   13 1
    14   12   24 1
    15   13   14 1
    16   14   15 1
    17   14   17 1
    18   15   16 1
    19   16   24 1
    20   17   22 ar
    21   17   18 ar
    22   18   19 ar
    23   19   20 ar
    24   20   21 ar
    25   21   22 ar
    26   21   23 1
    27    1   25 1
    28    1   26 1
    29    1   27 1
    30    4   28 1
    31    5   29 1
    32    7   30 1
    33   10   31 1
    34   10   32 1
    35   10   33 1
    36   11   34 1
    37   11   35 1
    38   12   36 1
    39   12   37 1
    40   13   38 1
    41   13   39 1
    42   15   40 1
    43   15   41 1
    44   16   42 1
    45   16   43 1
    46   18   44 1
    47   19   45 1
    48   20   46 1
    49   22   47 1
    50   24   48 1
@<TRIPOS>MOLECULE
ZINC00299604
 36 37 0 0 0
SMALL
NO_CHARGES


@<TRIPOS>ATOM
      1 C           4.313   -10.592    -0.682  C    
      2 C           4.867    -9.395    -0.008  C    
      3 C           4.070    -8.587     0.833  C    
      4 C           4.610    -7.447     1.457  C    
      5 C           5.967    -7.077     1.271  C    
      6 C           6.757    -7.899     0.422  C    
      7 C           6.217    -9.035    -0.210  C    
      8 C           6.519    -5.951     1.904  C    
      9 O           7.737    -5.819     1.959  O    
     10 N           5.756    -4.999     2.430  N    
     11 N           6.226    -3.920     3.010  N    
     12 C           5.474    -2.924     3.460  C    
     13 O           4.256    -3.001     3.356  O    
     14 C           6.057    -1.806     4.066  C    
     15 C           7.178    -2.004     4.915  C    
     16 C           7.798    -0.932     5.577  C    
     17 C           7.310     0.372     5.403  C    
     18 C           6.214     0.600     4.555  C    
     19 C           5.577    -0.469     3.875  C    
     20 C           4.472    -0.132     2.932  C    
     21 H           4.398   -10.482    -1.761  H    
     22 H           3.263   -10.752    -0.433  H    
     23 H           4.875   -11.483    -0.374  H    
     24 H           3.089    -8.830     0.998  H    
     25 H           3.992    -6.902     2.067  H    
     26 H           7.740    -7.674     0.246  H    
     27 H           6.816    -9.601    -0.817  H    
     28 H           4.795    -5.089     2.362  H    
     29 H           7.187    -3.838     3.099  H    
     30 H           7.552    -2.946     5.076  H    
     31 H           8.602    -1.099     6.186  H    
     32 H           7.758     1.155     5.890  H    
     33 H           5.886     1.563     4.440  H    
     34 H           4.700    -0.533     1.945  H    
     35 H           4.322     0.946     2.821  H    
     36 H           3.532    -0.556     3.287  H    
@<TRIPOS>BOND
     1    1    2 1
     2    2    7 ar
     3    2    3 ar
     4    3    4 ar
     5    4    5 ar
     6    5    6 ar
     7    5    8 1
     8    6    7 ar
     9    8    9 2
    10    8   10 1
    11   10   11 1
    12   11   12 1
    13   12   13 2
    14   12   14 1
    15   14   19 ar
    16   14   15 ar
    17   15   16 ar
    18   16   17 ar
    19   17   18 ar
    20   18   19 ar
    21   19   20 1
    22    1   21 1
    23    1   22 1
    24    1   23 1
    25    3   24 1
    26    4   25 1
    27    6   26 1
    28    7   27 1
    29   10   28 1
    30   11   29 1
    31   15   30 1
    32   16   31 1
    33   17   32 1
    34   18   33 1
    35   20   34 1
    36   20   35 1
    37   20   36 1
@<TRIPOS>MOLECULE
ZINC00300945
 38 40 0 0 0
SMALL
NO_CHARGES


@<TRIPOS>ATOM
      1 C           1.844     0.885     4.270  C    
      2 C           1.776     1.688     3.014  C    
      3 C           2.905     2.477     2.682  C    
      4 C           2.939     3.245     1.509  C    
      5 C           1.849     3.257     0.623  C    
      6 C           0.720     2.469     0.956  C    
      7 C           0.644     1.678     2.136  C    
      8 N          -0.507     0.967     2.362  N    
      9 O          -0.724     0.329     3.360  O    
     10 O          -1.504     0.936     1.517  O    
     11 N           1.979     4.073    -0.473  N    
     12 C           1.248     4.209    -1.576  C    
     13 O           0.238     3.562    -1.804  O    
     14 C           1.622     5.242    -2.523  C    
     15 C           3.054     5.108    -3.080  C    
     16 C           1.857     5.022    -4.041  C    
     17 C           1.462     3.736    -4.666  C    
     18 C           2.425     2.849    -5.201  C    
     19 C           2.028     1.649    -5.822  C    
     20 C           0.662     1.333    -5.932  C    
     21 C          -0.308     2.223    -5.431  C    
     22 C           0.090     3.423    -4.816  C    
     23 H           1.060     1.203     4.958  H    
     24 H           2.797     0.986     4.799  H    
     25 H           1.713    -0.173     4.032  H    
     26 H           3.724     2.500     3.295  H    
     27 H           3.773     3.807     1.307  H    
     28 H          -0.086     2.497     0.335  H    
     29 H           2.757     4.651    -0.446  H    
     30 H           1.400     6.273    -2.225  H    
     31 H           3.633     6.034    -3.139  H    
     32 H           3.584     4.174    -2.879  H    
     33 H           1.678     5.922    -4.633  H    
     34 H           3.423     3.067    -5.145  H    
     35 H           2.733     1.012    -6.197  H    
     36 H           0.375     0.462    -6.384  H    
     37 H          -1.301     2.001    -5.524  H    
     38 H          -0.627     4.070    -4.473  H    
@<TRIPOS>BOND
     1    1    2 1
     2    2    7 ar
     3    2    3 ar
     4    3    4 ar
     5    4    5 ar
     6    5    6 ar
     7    5   11 1
     8    6    7 ar
     9    7    8 1
    10    8    9 2
    11    8   10 1
    12   11   12 1
    13   12   13 2
    14   12   14 1
    15   14   16 1
    16   14   15 1
    17   15   16 1
    18   16   17 1
    19   17   22 ar
    20   17   18 ar
    21   18   19 ar
    22   19   20 ar
    23   20   21 ar
    24   21   22 ar
    25    1   23 1
    26    1   24 1
    27    1   25 1
    28    3   26 1
    29    4   27 1
    30    6   28 1
    31   11   29 1
    32   14   30 1
    33   15   31 1
    34   15   32 1
    35   16   33 1
    36   18   34 1
    37   19   35 1
    38   20   36 1
    39   21   37 1
    40   22   38 1
@<TRIPOS>MOLECULE
ZINC00301306
 25 26 0 0 0
SMALL
NO_CHARGES


@<TRIPOS>ATOM
      1 C           5.685    -6.839     1.573  C    
      2 C           6.520    -7.955     1.762  C    
      3 C           6.592    -8.959     0.778  C    
      4 C           5.825    -8.840    -0.395  C    
      5 C           4.987    -7.725    -0.582  C    
      6 C           4.908    -6.710     0.402  C    
      7 N           4.140    -5.598     0.296  N    
      8 C           3.315    -5.171    -0.639  C    
      9 C           2.672    -3.968    -0.484  C    
     10 C           1.772    -3.393    -1.377  C    
     11 C           1.376    -2.182    -0.835  C    
     12 C           2.039    -2.035     0.381  C    
     13 O           2.819    -3.130     0.573  O    
     14 N           1.952    -0.994     1.238  N    
     15 O           2.596    -0.986     2.253  O    
     16 O           1.190     0.034     0.993  O    
     17 O           7.394   -10.040     0.942  O    
     18 H           5.648    -6.118     2.299  H    
     19 H           7.077    -8.032     2.616  H    
     20 H           5.873    -9.565    -1.114  H    
     21 H           4.442    -7.664    -1.441  H    
     22 H           3.155    -5.706    -1.459  H    
     23 H           1.459    -3.784    -2.269  H    
     24 H           0.721    -1.521    -1.257  H    
     25 H           7.719    -9.993     1.868  H    
@<TRIPOS>BOND
     1    1    6 ar
     2    1    2 ar
     3    2    3 ar
     4    3    4 ar
     5    3   17 1
     6    4    5 ar
     7    5    6 ar
     8    6    7 1
     9    7    8 2
    10    8    9 1
    11    9   13 1
    12    9   10 2
    13   10   11 1
    14   11   12 2
    15   12   13 1
    16   12   14 1
    17   14   15 2
    18   14   16 1
    19    1   18 1
    20    2   19 1
    21    4   20 1
    22    5   21 1
    23    8   22 1
    24   10   23 1
    25   11   24 1
    26   17   25 1
@<TRIPOS>MOLECULE
ZINC00305743
 37 39 0 0 0
SMALL
NO_CHARGES


@<TRIPOS>ATOM
      1 C           1.605     4.867    -1.415  C    
      2 C           0.477     4.318    -2.054  C    
      3 C          -0.577     3.778    -1.292  C    
      4 C          -0.495     3.795     0.117  C    
      5 C           0.627     4.342     0.752  C    
      6 C           1.687     4.880    -0.009  C    
      7 N           0.455     4.216     2.083  N    
      8 C          -0.735     3.596     2.268  C    
      9 N          -1.329     3.336     1.075  N    
     10 C          -2.604     2.691     0.896  C    
     11 C          -2.545     1.250     1.253  C    
     12 C          -1.666     0.380     0.566  C    
     13 C          -1.598    -0.987     0.894  C    
     14 C          -2.415    -1.515     1.911  C    
     15 C          -3.300    -0.662     2.596  C    
     16 C          -3.365     0.706     2.270  C    
     17 Cl         -2.337    -3.156     2.303  Cl   
     18 C           1.362     4.641     3.118  C    
     19 C           2.296     3.492     3.557  C    
     20 O           3.172     3.919     4.594  O    
     21 N          -1.257     3.289     3.473  N    
     22 H           2.368     5.253    -1.975  H    
     23 H           0.427     4.307    -3.075  H    
     24 H          -1.381     3.374    -1.770  H    
     25 H           2.513     5.271     0.441  H    
     26 H          -3.344     3.224     1.499  H    
     27 H          -2.950     2.758    -0.135  H    
     28 H          -1.061     0.737    -0.177  H    
     29 H          -0.950    -1.592     0.387  H    
     30 H          -3.901    -1.028     3.335  H    
     31 H          -4.016     1.302     2.783  H    
     32 H           1.967     5.483     2.777  H    
     33 H           0.797     4.999     3.984  H    
     34 H           1.706     2.652     3.930  H    
     35 H           2.893     3.150     2.709  H    
     36 H           3.699     4.643     4.202  H    
     37 H          -2.123     2.846     3.531  H    
@<TRIPOS>BOND
     1    1    6 ar
     2    1    2 ar
     3    2    3 ar
     4    3    4 ar
     5    4    9 1
     6    4    5 ar
     7    5    6 ar
     8    5    7 1
     9    7    8 1
    10    7   18 1
    11    8    9 1
    12    8   21 2
    13    9   10 1
    14   10   11 1
    15   11   16 ar
    16   11   12 ar
    17   12   13 ar
    18   13   14 ar
    19   14   15 ar
    20   14   17 1
    21   15   16 ar
    22   18   19 1
    23   19   20 1
    24    1   22 1
    25    2   23 1
    26    3   24 1
    27    6   25 1
    28   10   26 1
    29   10   27 1
    30   12   28 1
    31   13   29 1
    32   15   30 1
    33   16   31 1
    34   18   32 1
    35   18   33 1
    36   19   34 1
    37   19   35 1
    38   20   36 1
    39   21   37 1
@<TRIPOS>MOLECULE
ZINC00306948
 35 37 0 0 0
SMALL
NO_CHARGES


@<TRIPOS>ATOM
      1 C           8.241    -8.065     1.952  C    
      2 C           6.894    -7.739     2.655  C    
      3 C           5.970    -6.943     1.859  C    
      4 O           6.287    -6.535     0.746  O    
      5 N           4.779    -6.676     2.383  N    
      6 C           3.767    -5.949     1.859  C    
      7 N           2.619    -5.747     2.542  N    
      8 C           1.687    -4.990     1.908  C    
      9 C           0.427    -4.642     2.423  C    
     10 C          -0.440    -3.839     1.651  C    
     11 C          -0.051    -3.390     0.370  C    
     12 C           1.212    -3.736    -0.151  C    
     13 C           2.059    -4.532     0.634  C    
     14 S           3.638    -5.131     0.342  S    
     15 O           7.110    -7.002     3.886  O    
     16 C           7.643    -7.700     4.937  C    
     17 C           6.854    -8.598     5.692  C    
     18 C           7.411    -9.283     6.790  C    
     19 C           8.756    -9.060     7.152  C    
     20 C           9.537    -8.142     6.418  C    
     21 C           8.978    -7.458     5.321  C    
     22 Cl          9.411    -9.871     8.481  Cl   
     23 H           8.064    -8.566     0.999  H    
     24 H           8.844    -8.727     2.573  H    
     25 H           8.806    -7.151     1.772  H    
     26 H           6.390    -8.689     2.860  H    
     27 H           4.618    -7.040     3.270  H    
     28 H           0.141    -4.968     3.352  H    
     29 H          -1.359    -3.584     2.023  H    
     30 H          -0.685    -2.809    -0.182  H    
     31 H           1.503    -3.418    -1.075  H    
     32 H           5.878    -8.759     5.436  H    
     33 H           6.831    -9.940     7.322  H    
     34 H          10.511    -7.960     6.682  H    
     35 H           9.550    -6.787     4.796  H    
@<TRIPOS>BOND
     1    1    2 1
     2    2    3 1
     3    2   15 1
     4    3    4 2
     5    3    5 1
     6    5    6 1
     7    6   14 1
     8    6    7 2
     9    7    8 1
    10    8   13 ar
    11    8    9 ar
    12    9   10 ar
    13   10   11 ar
    14   11   12 ar
    15   12   13 ar
    16   13   14 1
    17   15   16 1
    18   16   21 ar
    19   16   17 ar
    20   17   18 ar
    21   18   19 ar
    22   19   20 ar
    23   19   22 1
    24   20   21 ar
    25    1   23 1
    26    1   24 1
    27    1   25 1
    28    2   26 1
    29    5   27 1
    30    9   28 1
    31   10   29 1
    32   11   30 1
    33   12   31 1
    34   17   32 1
    35   18   33 1
    36   20   34 1
    37   21   35 1
@<TRIPOS>MOLECULE
ZINC00310144
 39 41 0 0 0
SMALL
NO_CHARGES


@<TRIPOS>ATOM
      1 C           3.069    -0.038    -6.513  C    
      2 C           3.580    -0.975    -5.520  C    
      3 O           4.794    -1.175    -5.504  O    
      4 C           2.761    -1.676    -4.682  C    
      5 C           3.097    -2.069    -3.438  C    
      6 C           2.281    -2.776    -2.539  C    
      7 C           1.232    -3.621    -2.993  C    
      8 C           0.417    -4.326    -2.090  C    
      9 C           0.644    -4.216    -0.710  C    
     10 C           1.682    -3.396    -0.235  C    
     11 C           2.504    -2.671    -1.133  C    
     12 O           3.522    -1.863    -0.684  O    
     13 C           3.906    -1.275     0.489  C    
     14 O           3.089    -1.381     1.562  O    
     15 C           5.089    -0.526     0.548  C    
     16 C           6.003    -0.588    -0.457  C    
     17 C           7.209     0.116    -0.445  C    
     18 C           8.159     0.039    -1.490  C    
     19 C           9.357     0.775    -1.418  C    
     20 C           9.615     1.597    -0.304  C    
     21 C           8.678     1.682     0.742  C    
     22 C           7.484     0.942     0.673  C    
     23 O           6.560     1.005     1.681  O    
     24 C           5.391     0.301     1.650  C    
     25 O           4.568     0.480     2.711  O    
     26 H           3.515     0.947    -6.358  H    
     27 H           1.984     0.082    -6.452  H    
     28 H           3.325    -0.389    -7.518  H    
     29 H           1.839    -1.851    -5.003  H    
     30 H           3.992    -1.787    -3.110  H    
     31 H           1.056    -3.753    -3.990  H    
     32 H          -0.330    -4.933    -2.437  H    
     33 H           0.062    -4.738    -0.050  H    
     34 H           1.843    -3.357     0.773  H    
     35 H           5.830    -1.172    -1.244  H    
     36 H           7.988    -0.551    -2.308  H    
     37 H          10.039     0.715    -2.178  H    
     38 H          10.485     2.131    -0.257  H    
     39 H           8.865     2.283     1.549  H    
@<TRIPOS>BOND
     1    1    2 1
     2    2    3 2
     3    2    4 1
     4    4    5 2
     5    5    6 1
     6    6   11 ar
     7    6    7 ar
     8    7    8 ar
     9    8    9 ar
    10    9   10 ar
    11   10   11 ar
    12   11   12 1
    13   12   13 1
    14   13   14 2
    15   13   15 1
    16   15   24 1
    17   15   16 2
    18   16   17 1
    19   17   22 ar
    20   17   18 ar
    21   18   19 ar
    22   19   20 ar
    23   20   21 ar
    24   21   22 ar
    25   22   23 1
    26   23   24 1
    27   24   25 2
    28    1   26 1
    29    1   27 1
    30    1   28 1
    31    4   29 1
    32    5   30 1
    33    7   31 1
    34    8   32 1
    35    9   33 1
    36   10   34 1
    37   16   35 1
    38   18   36 1
    39   19   37 1
    40   20   38 1
    41   21   39 1
@<TRIPOS>MOLECULE
ZINC00311337
 33 35 0 0 0
SMALL
NO_CHARGES


@<TRIPOS>ATOM
      1 C           4.098   -11.924    -1.462  C    
      2 C           3.181   -10.899    -1.744  C    
      3 C           3.231    -9.692    -1.020  C    
      4 C           4.196    -9.484    -0.004  C    
      5 C           5.101   -10.542     0.273  C    
      6 C           5.054   -11.750    -0.449  C    
      7 N           4.150    -8.269     0.636  N    
      8 C           4.874    -7.760     1.627  C    
      9 O           5.783    -8.373     2.169  O    
     10 N           4.517    -6.551     2.034  N    
     11 C           5.041    -5.787     3.021  C    
     12 N           4.453    -4.626     3.334  N    
     13 N           5.004    -4.025     4.287  N    
     14 C           6.028    -4.609     4.784  C    
     15 S           6.422    -6.091     4.027  S    
     16 C           6.753    -4.083     5.848  C    
     17 C           8.168    -4.042     5.765  C    
     18 C           8.941    -3.510     6.811  C    
     19 C           8.314    -3.017     7.965  C    
     20 C           6.914    -3.053     8.074  C    
     21 C           6.127    -3.577     7.025  C    
     22 Cl          4.448    -3.637     7.286  Cl   
     23 H           4.068   -12.801    -1.992  H    
     24 H           2.487   -11.026    -2.484  H    
     25 H           2.555    -8.957    -1.246  H    
     26 H           5.812   -10.454     0.993  H    
     27 H           5.721   -12.496    -0.239  H    
     28 H           3.455    -7.676     0.314  H    
     29 H           3.755    -6.167     1.572  H    
     30 H           8.649    -4.382     4.928  H    
     31 H           9.962    -3.487     6.736  H    
     32 H           8.878    -2.635     8.729  H    
     33 H           6.472    -2.702     8.927  H    
@<TRIPOS>BOND
     1    1    6 ar
     2    1    2 ar
     3    2    3 ar
     4    3    4 ar
     5    4    5 ar
     6    4    7 1
     7    5    6 ar
     8    7    8 1
     9    8    9 2
    10    8   10 1
    11   10   11 1
    12   11   15 1
    13   11   12 2
    14   12   13 1
    15   13   14 2
    16   14   15 1
    17   14   16 1
    18   16   21 ar
    19   16   17 ar
    20   17   18 ar
    21   18   19 ar
    22   19   20 ar
    23   20   21 ar
    24   21   22 1
    25    1   23 1
    26    2   24 1
    27    3   25 1
    28    5   26 1
    29    6   27 1
    30    7   28 1
    31   10   29 1
    32   17   30 1
    33   18   31 1
    34   19   32 1
    35   20   33 1
@<TRIPOS>MOLECULE
ZINC00314427
 34 35 0 0 0
SMALL
NO_CHARGES


@<TRIPOS>ATOM
      1 C           4.522    -2.310    -0.323  C    
      2 C           3.793    -1.722    -1.475  C    
      3 C           4.089    -0.532    -2.158  C    
      4 C           3.048    -0.325    -3.083  C    
      5 C           2.182    -1.422    -2.959  C    
      6 N           2.650    -2.243    -1.987  N    
      7 C           2.048    -3.401    -1.561  C    
      8 C           0.788    -3.362    -0.917  C    
      9 C           0.175    -4.548    -0.475  C    
     10 C           0.818    -5.786    -0.665  C    
     11 C           2.075    -5.842    -1.305  C    
     12 C           2.688    -4.649    -1.742  C    
     13 S           2.897    -7.363    -1.520  S    
     14 C           1.925    -7.952    -2.926  C    
     15 F           2.076    -7.119    -4.007  F    
     16 F           2.368    -9.203    -3.269  F    
     17 C           0.970    -1.645    -3.791  C    
     18 C           2.866     0.707    -3.997  C    
     19 O           3.681     1.598    -4.186  O    
     20 C           5.192     0.293    -1.967  C    
     21 O           6.243    -0.116    -1.501  O    
     22 H           3.816    -2.574     0.465  H    
     23 H           5.243    -1.620     0.110  H    
     24 H           5.046    -3.210    -0.645  H    
     25 H           0.315    -2.466    -0.768  H    
     26 H          -0.737    -4.509    -0.013  H    
     27 H           0.366    -6.645    -0.338  H    
     28 H           3.602    -4.686    -2.203  H    
     29 H           0.869    -8.019    -2.662  H    
     30 H           0.254    -0.842    -3.610  H    
     31 H           0.482    -2.596    -3.577  H    
     32 H           1.247    -1.649    -4.848  H    
     33 H           2.051     0.735    -4.565  H    
     34 H           5.199     1.214    -2.320  H    
@<TRIPOS>BOND
     1    1    2 1
     2    2    6 1
     3    2    3 2
     4    3    4 1
     5    3   20 1
     6    4    5 2
     7    4   18 1
     8    5    6 1
     9    5   17 1
    10    6    7 1
    11    7   12 ar
    12    7    8 ar
    13    8    9 ar
    14    9   10 ar
    15   10   11 ar
    16   11   12 ar
    17   11   13 1
    18   13   14 1
    19   14   15 1
    20   14   16 1
    21   18   19 2
    22   20   21 2
    23    1   22 1
    24    1   23 1
    25    1   24 1
    26    8   25 1
    27    9   26 1
    28   10   27 1
    29   12   28 1
    30   14   29 1
    31   17   30 1
    32   17   31 1
    33   17   32 1
    34   18   33 1
    35   20   34 1
@<TRIPOS>MOLECULE
ZINC00328344
 45 46 0 0 0
SMALL
NO_CHARGES


@<TRIPOS>ATOM
      1 C           7.525   -10.276     1.218  C    
      2 C           7.392    -8.751     1.005  C    
      3 C           5.911    -8.275     0.924  C    
      4 C           5.687    -6.837     0.769  C    
      5 O           6.672    -6.123     0.598  O    
      6 N           4.468    -6.261     0.811  N    
      7 C           3.234    -6.992     0.933  C    
      8 C           2.127    -6.117     0.333  C    
      9 S           2.499    -4.452     0.884  S    
     10 C           4.267    -4.828     0.736  C    
     11 C           4.978    -4.033     1.785  C    
     12 C           4.878    -4.388     3.150  C    
     13 C           5.529    -3.634     4.144  C    
     14 C           6.302    -2.482     3.827  C    
     15 C           6.384    -2.135     2.451  C    
     16 C           5.751    -2.897     1.449  C    
     17 C           7.003    -1.625     4.874  C    
     18 C           6.887    -2.168     6.343  C    
     19 C           8.534    -1.531     4.552  C    
     20 C           6.377    -0.192     4.865  C    
     21 H           7.092   -10.564     2.179  H    
     22 H           8.579   -10.558     1.212  H    
     23 H           7.012   -10.820     0.420  H    
     24 H           7.888    -8.246     1.842  H    
     25 H           7.915    -8.482     0.080  H    
     26 H           5.438    -8.786     0.079  H    
     27 H           5.410    -8.597     1.843  H    
     28 H           3.245    -7.945     0.398  H    
     29 H           3.026    -7.189     1.988  H    
     30 H           2.151    -6.154    -0.760  H    
     31 H           1.139    -6.422     0.685  H    
     32 H           4.583    -4.513    -0.266  H    
     33 H           4.320    -5.204     3.428  H    
     34 H           5.408    -3.947     5.112  H    
     35 H           6.909    -1.307     2.150  H    
     36 H           5.844    -2.606     0.469  H    
     37 H           5.845    -2.192     6.672  H    
     38 H           7.438    -1.535     7.043  H    
     39 H           7.299    -3.177     6.417  H    
     40 H           8.963    -2.530     4.446  H    
     41 H           9.070    -1.016     5.353  H    
     42 H           8.713    -0.981     3.626  H    
     43 H           6.517     0.301     3.902  H    
     44 H           6.838     0.439     5.627  H    
     45 H           5.304    -0.241     5.066  H    
@<TRIPOS>BOND
     1    1    2 1
     2    2    3 1
     3    3    4 1
     4    4    5 2
     5    4    6 1
     6    6   10 1
     7    6    7 1
     8    7    8 1
     9    8    9 1
    10    9   10 1
    11   10   11 1
    12   11   16 ar
    13   11   12 ar
    14   12   13 ar
    15   13   14 ar
    16   14   15 ar
    17   14   17 1
    18   15   16 ar
    19   17   18 1
    20   17   19 1
    21   17   20 1
    22    1   21 1
    23    1   22 1
    24    1   23 1
    25    2   24 1
    26    2   25 1
    27    3   26 1
    28    3   27 1
    29    7   28 1
    30    7   29 1
    31    8   30 1
    32    8   31 1
    33   10   32 1
    34   12   33 1
    35   13   34 1
    36   15   35 1
    37   16   36 1
    38   18   37 1
    39   18   38 1
    40   18   39 1
    41   19   40 1
    42   19   41 1
    43   19   42 1
    44   20   43 1
    45   20   44 1
    46   20   45 1
@<TRIPOS>MOLECULE
ZINC00336142
 44 47 0 0 0
SMALL
NO_CHARGES


@<TRIPOS>ATOM
      1 C           2.895     5.171    -3.015  C    
      2 O           3.010     4.892    -1.612  O    
      3 C           2.431     5.731    -0.686  C    
      4 C           1.966     7.049    -0.932  C    
      5 C           1.404     7.817     0.105  C    
      6 C           1.308     7.285     1.404  C    
      7 C           1.793     5.986     1.671  C    
      8 C           2.338     5.213     0.625  C    
      9 N           1.692     5.497     2.941  N    
     10 C           1.140     6.206     3.961  C    
     11 N           0.855     5.456     5.050  N    
     12 C           0.053     5.593     6.137  C    
     13 C          -1.187     6.270     6.094  C    
     14 C          -1.977     6.385     7.253  C    
     15 C          -1.549     5.795     8.458  C    
     16 C          -0.338     5.080     8.499  C    
     17 C           0.453     4.967     7.336  C    
     18 C           0.809     7.583     3.723  C    
     19 N           0.617     8.564     4.636  N    
     20 C           0.838     8.715     5.969  C    
     21 C           1.923     8.102     6.639  C    
     22 C           2.110     8.296     8.021  C    
     23 C           1.223     9.118     8.743  C    
     24 C           0.165     9.761     8.078  C    
     25 C          -0.016     9.572     6.693  C    
     26 N           0.820     8.029     2.439  N    
     27 H           1.848     5.292    -3.309  H    
     28 H           3.321     4.333    -3.569  H    
     29 H           3.458     6.074    -3.272  H    
     30 H           2.032     7.464    -1.862  H    
     31 H           1.073     8.766    -0.085  H    
     32 H           2.683     4.270     0.817  H    
     33 H           1.930     4.568     3.102  H    
     34 H          -1.521     6.687     5.224  H    
     35 H          -2.866     6.889     7.220  H    
     36 H          -2.123     5.878     9.299  H    
     37 H          -0.033     4.641     9.370  H    
     38 H           1.335     4.453     7.386  H    
     39 H           2.588     7.519     6.128  H    
     40 H           2.892     7.845     8.501  H    
     41 H           1.361     9.259     9.746  H    
     42 H          -0.473    10.367     8.600  H    
     43 H          -0.791    10.050     6.225  H    
     44 H           0.596     8.956     2.268  H    
@<TRIPOS>BOND
     1    1    2 1
     2    2    3 1
     3    3    8 ar
     4    3    4 ar
     5    4    5 ar
     6    5    6 ar
     7    6   26 1
     8    6    7 ar
     9    7    8 ar
    10    7    9 1
    11    9   10 1
    12   10   11 2
    13   10   18 1
    14   11   12 1
    15   12   17 ar
    16   12   13 ar
    17   13   14 ar
    18   14   15 ar
    19   15   16 ar
    20   16   17 ar
    21   18   19 2
    22   18   26 1
    23   19   20 1
    24   20   25 ar
    25   20   21 ar
    26   21   22 ar
    27   22   23 ar
    28   23   24 ar
    29   24   25 ar
    30    1   27 1
    31    1   28 1
    32    1   29 1
    33    4   30 1
    34    5   31 1
    35    8   32 1
    36    9   33 1
    37   13   34 1
    38   14   35 1
    39   15   36 1
    40   16   37 1
    41   17   38 1
    42   21   39 1
    43   22   40 1
    44   23   41 1
    45   24   42 1
    46   25   43 1
    47   26   44 1
@<TRIPOS>MOLECULE
ZINC00346782
 33 34 0 0 0
SMALL
NO_CHARGES


@<TRIPOS>ATOM
      1 C           6.773    -8.241    -0.231  C    
      2 C           5.853    -8.391     0.933  C    
      3 C           5.673    -9.693     1.461  C    
      4 C           4.845    -9.922     2.574  C    
      5 C           4.186    -8.847     3.185  C    
      6 C           4.354    -7.545     2.681  C    
      7 C           5.180    -7.284     1.552  C    
      8 C           5.287    -5.958     1.104  C    
      9 O           5.428    -5.733    -0.093  O    
     10 N           5.279    -4.947     1.975  N    
     11 C           5.357    -3.627     1.767  C    
     12 S           4.704    -2.890     0.371  S    
     13 N           5.555    -2.903     2.867  N    
     14 C           6.170    -1.700     3.036  C    
     15 C           6.870    -1.014     2.009  C    
     16 C           7.516     0.211     2.264  C    
     17 C           7.486     0.768     3.553  C    
     18 C           6.810     0.098     4.585  C    
     19 C           6.159    -1.127     4.335  C    
     20 Br          5.303    -1.951     5.773  Br   
     21 H           6.205    -7.921    -1.108  H    
     22 H           7.284    -9.172    -0.493  H    
     23 H           7.539    -7.499    -0.003  H    
     24 H           6.140   -10.499     1.037  H    
     25 H           4.726   -10.871     2.937  H    
     26 H           3.575    -9.013     3.988  H    
     27 H           3.839    -6.793     3.145  H    
     28 H           5.276    -5.215     2.908  H    
     29 H           5.273    -3.337     3.688  H    
     30 H           6.950    -1.409     1.073  H    
     31 H           8.027     0.685     1.515  H    
     32 H           7.961     1.653     3.740  H    
     33 H           6.795     0.503     5.522  H    
@<TRIPOS>BOND
     1    1    2 1
     2    2    7 ar
     3    2    3 ar
     4    3    4 ar
     5    4    5 ar
     6    5    6 ar
     7    6    7 ar
     8    7    8 1
     9    8    9 2
    10    8   10 1
    11   10   11 1
    12   11   12 2
    13   11   13 1
    14   13   14 1
    15   14   19 ar
    16   14   15 ar
    17   15   16 ar
    18   16   17 ar
    19   17   18 ar
    20   18   19 ar
    21   19   20 1
    22    1   21 1
    23    1   22 1
    24    1   23 1
    25    3   24 1
    26    4   25 1
    27    5   26 1
    28    6   27 1
    29   10   28 1
    30   13   29 1
    31   15   30 1
    32   16   31 1
    33   17   32 1
    34   18   33 1
@<TRIPOS>MOLECULE
ZINC00351607
 49 51 0 0 0
SMALL
NO_CHARGES


@<TRIPOS>ATOM
      1 C           6.540   -12.234    -2.844  C    
      2 C           5.978   -10.918    -2.466  C    
      3 C           4.631   -10.582    -2.738  C    
      4 C           4.116    -9.326    -2.364  C    
      5 C           4.935    -8.378    -1.705  C    
      6 C           6.284    -8.715    -1.437  C    
      7 C           6.798    -9.968    -1.815  C    
      8 C           4.400    -7.057    -1.277  C    
      9 C           4.182    -5.463     0.622  C    
     10 C           4.258    -5.302     2.160  C    
     11 N           3.294    -6.223     2.822  N    
     12 C           3.514    -7.647     2.445  C    
     13 C           3.440    -7.812     0.909  C    
     14 N           3.341    -6.088     4.147  N    
     15 C           2.362    -5.757     4.954  C    
     16 C           1.063    -5.800     4.580  C    
     17 C           2.726    -5.388     6.256  C    
     18 C           3.834    -4.531     6.490  C    
     19 C           4.212    -4.173     7.798  C    
     20 C           3.482    -4.690     8.881  C    
     21 N           2.429    -5.514     8.649  N    
     22 C           2.034    -5.869     7.399  C    
     23 N           4.395    -6.888     0.213  N    
     24 H           7.366   -12.097    -3.545  H    
     25 H           5.796   -12.879    -3.316  H    
     26 H           6.916   -12.743    -1.955  H    
     27 H           4.014   -11.252    -3.206  H    
     28 H           3.135    -9.112    -2.567  H    
     29 H           6.899    -8.048    -0.962  H    
     30 H           7.778   -10.189    -1.607  H    
     31 H           5.035    -6.295    -1.739  H    
     32 H           3.387    -6.902    -1.662  H    
     33 H           3.207    -5.110     0.274  H    
     34 H           4.954    -4.827     0.176  H    
     35 H           5.282    -5.507     2.496  H    
     36 H           4.014    -4.266     2.417  H    
     37 H           2.363    -5.964     2.494  H    
     38 H           4.489    -7.994     2.798  H    
     39 H           2.741    -8.273     2.901  H    
     40 H           3.680    -8.852     0.673  H    
     41 H           2.416    -7.618     0.578  H    
     42 H           4.176    -6.239     4.547  H    
     43 H           0.339    -5.520     5.199  H    
     44 H           0.793    -6.105     3.676  H    
     45 H           4.371    -4.149     5.706  H    
     46 H           5.006    -3.547     7.958  H    
     47 H           3.738    -4.452     9.841  H    
     48 H           1.242    -6.512     7.309  H    
     49 H           5.333    -7.139     0.536  H    
@<TRIPOS>BOND
     1    1    2 1
     2    2    7 ar
     3    2    3 ar
     4    3    4 ar
     5    4    5 ar
     6    5    6 ar
     7    5    8 1
     8    6    7 ar
     9    8   23 1
    10    9   10 1
    11    9   23 1
    12   10   11 1
    13   11   12 1
    14   11   14 1
    15   12   13 1
    16   13   23 1
    17   14   15 1
    18   15   17 1
    19   15   16 2
    20   17   22 ar
    21   17   18 ar
    22   18   19 ar
    23   19   20 ar
    24   20   21 ar
    25   21   22 ar
    26    1   24 1
    27    1   25 1
    28    1   26 1
    29    3   27 1
    30    4   28 1
    31    6   29 1
    32    7   30 1
    33    8   31 1
    34    8   32 1
    35    9   33 1
    36    9   34 1
    37   10   35 1
    38   10   36 1
    39   11   37 1
    40   12   38 1
    41   12   39 1
    42   13   40 1
    43   13   41 1
    44   14   42 1
    45   16   43 1
    46   16   44 1
    47   18   45 1
    48   19   46 1
    49   20   47 1
    50   22   48 1
    51   23   49 1
@<TRIPOS>MOLECULE
ZINC00352204
 34 35 0 0 0
SMALL
NO_CHARGES


@<TRIPOS>ATOM
      1 C           3.879   -10.008     0.139  C    
      2 C           4.840    -8.897     0.181  C    
      3 C           4.750    -7.728     0.931  C    
      4 C           5.877    -6.948     0.668  C    
      5 C           6.631    -7.693    -0.255  C    
      6 O           5.990    -8.856    -0.530  O    
      7 C           7.926    -7.354    -0.871  C    
      8 C           6.164    -5.700     1.219  C    
      9 O           7.150    -5.098     0.821  O    
     10 N           5.348    -5.154     2.115  N    
     11 C           5.417    -3.963     2.793  C    
     12 C           6.575    -3.164     2.963  C    
     13 C           6.528    -1.967     3.702  C    
     14 C           5.325    -1.535     4.304  C    
     15 C           4.172    -2.335     4.147  C    
     16 C           4.221    -3.531     3.407  C    
     17 C           5.276    -0.269     5.084  C    
     18 C           5.929    -0.413     6.396  C    
     19 O           7.275    -0.537     6.490  O    
     20 O           5.200    -0.381     7.536  O    
     21 H           3.509   -10.129    -0.879  H    
     22 H           3.032    -9.822     0.804  H    
     23 H           4.374   -10.931     0.449  H    
     24 H           3.977    -7.494     1.558  H    
     25 H           7.836    -6.432    -1.449  H    
     26 H           8.244    -8.154    -1.539  H    
     27 H           8.684    -7.225    -0.098  H    
     28 H           4.550    -5.671     2.302  H    
     29 H           7.474    -3.450     2.574  H    
     30 H           7.381    -1.411     3.794  H    
     31 H           3.288    -2.060     4.580  H    
     32 H           3.368    -4.088     3.319  H    
     33 H           5.763     0.532     4.526  H    
     34 H           4.241     0.042     5.239  H    
@<TRIPOS>BOND
     1    1    2 1
     2    2    6 1
     3    2    3 2
     4    3    4 1
     5    4    5 2
     6    4    8 1
     7    5    6 1
     8    5    7 1
     9    8    9 2
    10    8   10 1
    11   10   11 1
    12   11   16 ar
    13   11   12 ar
    14   12   13 ar
    15   13   14 ar
    16   14   15 ar
    17   14   17 1
    18   15   16 ar
    19   17   18 1
    20   18   19 2
    21   18   20 1
    22    1   21 1
    23    1   22 1
    24    1   23 1
    25    3   24 1
    26    7   25 1
    27    7   26 1
    28    7   27 1
    29   10   28 1
    30   12   29 1
    31   13   30 1
    32   15   31 1
    33   16   32 1
    34   17   33 1
    35   17   34 1
@<TRIPOS>MOLECULE
ZINC00355958
 34 35 0 0 0
SMALL
NO_CHARGES


@<TRIPOS>ATOM
      1 C           4.770    -8.880     0.414  C    
      2 O           3.744    -7.905     0.174  O    
      3 C           4.211    -6.615     0.154  C    
      4 C           4.098    -5.826     1.316  C    
      5 C           4.505    -4.471     1.324  C    
      6 C           5.042    -3.922     0.135  C    
      7 C           5.172    -4.702    -1.031  C    
      8 C           4.737    -6.044    -1.024  C    
      9 O           4.822    -6.787    -2.154  O    
     10 O           5.669    -4.133    -2.176  O    
     11 C           7.089    -4.317    -2.335  C    
     12 C           4.385    -3.645     2.557  C    
     13 C           4.347    -4.433     4.865  C    
     14 C           3.195    -3.414     4.782  C    
     15 S           2.657    -3.467     3.068  S    
     16 C           5.106    -4.326     6.126  C    
     17 O           4.490    -4.568     7.303  O    
     18 N           5.179    -4.212     3.669  N    
     19 O           6.434    -4.054     6.144  O    
     20 H           5.496    -8.893    -0.401  H    
     21 H           4.300    -9.864     0.471  H    
     22 H           5.286    -8.695     1.359  H    
     23 H           3.703    -6.247     2.160  H    
     24 H           5.344    -2.943     0.106  H    
     25 H           5.660    -7.286    -2.060  H    
     26 H           7.643    -3.833    -1.531  H    
     27 H           7.388    -3.862    -3.277  H    
     28 H           7.362    -5.376    -2.374  H    
     29 H           4.765    -2.632     2.385  H    
     30 H           3.936    -5.446     4.806  H    
     31 H           2.368    -3.683     5.443  H    
     32 H           3.540    -2.402     5.018  H    
     33 H           5.605    -5.097     3.385  H    
     34 H           5.924    -3.549     3.898  H    
@<TRIPOS>BOND
     1    1    2 1
     2    2    3 1
     3    3    8 ar
     4    3    4 ar
     5    4    5 ar
     6    5    6 ar
     7    5   12 1
     8    6    7 ar
     9    7    8 ar
    10    7   10 1
    11    8    9 1
    12   10   11 1
    13   12   15 1
    14   12   18 1
    15   13   14 1
    16   13   16 1
    17   13   18 1
    18   14   15 1
    19   16   17 2
    20   16   19 1
    21    1   20 1
    22    1   21 1
    23    1   22 1
    24    4   23 1
    25    6   24 1
    26    9   25 1
    27   11   26 1
    28   11   27 1
    29   11   28 1
    30   12   29 1
    31   13   30 1
    32   14   31 1
    33   14   32 1
    34   18   33 1
    35   18   34 1
@<TRIPOS>MOLECULE
ZINC00357316
 28 29 0 0 0
SMALL
NO_CHARGES


@<TRIPOS>ATOM
      1 C           6.690    -9.460    -0.838  C    
      2 C           5.928    -8.481    -0.054  C    
      3 C           5.531    -8.594     1.275  C    
      4 C           4.831    -7.440     1.589  C    
      5 C           4.815    -6.643     0.444  C    
      6 O           5.486    -7.295    -0.539  O    
      7 C           4.228    -5.411     0.272  C    
      8 N           3.596    -4.816     1.264  N    
      9 C           2.911    -3.658     1.433  C    
     10 C           2.447    -3.413     2.745  C    
     11 C           1.730    -2.240     3.087  C    
     12 C           1.485    -1.299     2.056  C    
     13 C           1.930    -1.527     0.744  C    
     14 C           2.635    -2.701     0.424  C    
     15 O           2.999    -2.863    -0.871  O    
     16 N           1.289    -2.029     4.362  N    
     17 O           0.673    -1.046     4.683  O    
     18 O           1.505    -2.882     5.327  O    
     19 H           6.101    -9.767    -1.702  H    
     20 H           6.930   -10.343    -0.240  H    
     21 H           7.619    -9.004    -1.183  H    
     22 H           5.711    -9.380     1.904  H    
     23 H           4.403    -7.226     2.493  H    
     24 H           4.306    -4.979    -0.613  H    
     25 H           2.643    -4.108     3.472  H    
     26 H           0.971    -0.437     2.250  H    
     27 H           1.729    -0.836     0.016  H    
     28 H           2.724    -3.775    -1.099  H    
@<TRIPOS>BOND
     1    1    2 1
     2    2    6 1
     3    2    3 2
     4    3    4 1
     5    4    5 2
     6    5    6 1
     7    5    7 1
     8    7    8 2
     9    8    9 1
    10    9   14 ar
    11    9   10 ar
    12   10   11 ar
    13   11   12 ar
    14   11   16 1
    15   12   13 ar
    16   13   14 ar
    17   14   15 1
    18   16   17 2
    19   16   18 1
    20    1   19 1
    21    1   20 1
    22    1   21 1
    23    3   22 1
    24    4   23 1
    25    7   24 1
    26   10   25 1
    27   12   26 1
    28   13   27 1
    29   15   28 1
@<TRIPOS>MOLECULE
ZINC00359674
 30 31 0 0 0
SMALL
NO_CHARGES


@<TRIPOS>ATOM
      1 C           5.460   -10.611     0.479  C    
      2 C           5.131    -9.601     1.400  C    
      3 C           4.962    -8.261     0.983  C    
      4 C           5.172    -7.953    -0.386  C    
      5 C           5.498    -8.962    -1.312  C    
      6 C           5.638   -10.293    -0.880  C    
      7 F           5.679    -8.658    -2.570  F    
      8 N           4.637    -7.363     1.951  N    
      9 C           4.293    -6.079     1.867  C    
     10 S           3.183    -5.552     0.678  S    
     11 N           4.451    -5.394     3.002  N    
     12 C           4.438    -4.077     3.217  C    
     13 O           4.389    -3.311     2.255  O    
     14 C           4.573    -3.551     4.511  C    
     15 C           4.366    -4.350     5.667  C    
     16 C           4.495    -3.813     6.961  C    
     17 C           4.832    -2.459     7.143  C    
     18 C           5.040    -1.638     6.012  C    
     19 C           4.909    -2.186     4.718  C    
     20 Cl          5.446     0.006     6.151  Cl   
     21 Cl          4.973    -1.871     8.732  Cl   
     22 H           5.565   -11.577     0.796  H    
     23 H           5.000    -9.856     2.385  H    
     24 H           5.119    -6.990    -0.718  H    
     25 H           5.875   -11.031    -1.547  H    
     26 H           4.687    -7.712     2.857  H    
     27 H           4.656    -5.942     3.779  H    
     28 H           4.093    -5.332     5.589  H    
     29 H           4.333    -4.417     7.770  H    
     30 H           5.066    -1.571     3.915  H    
@<TRIPOS>BOND
     1    1    6 ar
     2    1    2 ar
     3    2    3 ar
     4    3    4 ar
     5    3    8 1
     6    4    5 ar
     7    5    6 ar
     8    5    7 1
     9    8    9 1
    10    9   10 2
    11    9   11 1
    12   11   12 1
    13   12   13 2
    14   12   14 1
    15   14   19 ar
    16   14   15 ar
    17   15   16 ar
    18   16   17 ar
    19   17   18 ar
    20   17   21 1
    21   18   19 ar
    22   18   20 1
    23    1   22 1
    24    2   23 1
    25    4   24 1
    26    6   25 1
    27    8   26 1
    28   11   27 1
    29   15   28 1
    30   16   29 1
    31   19   30 1
@<TRIPOS>MOLECULE
ZINC00359741
 32 33 0 0 0
SMALL
NO_CHARGES


@<TRIPOS>ATOM
      1 C           4.147    -6.809    -1.273  C    
      2 O           3.228    -6.388    -0.250  O    
      3 C           3.472    -6.951     0.975  C    
      4 C           2.973    -8.244     1.247  C    
      5 C           3.184    -8.837     2.503  C    
      6 C           3.885    -8.140     3.500  C    
      7 C           4.360    -6.840     3.245  C    
      8 C           4.150    -6.222     1.989  C    
      9 C           4.623    -4.832     1.747  C    
     10 N           3.510    -3.968     1.513  N    
     11 C           3.548    -2.646     1.205  C    
     12 C           4.739    -1.891     1.071  C    
     13 C           4.688    -0.523     0.743  C    
     14 C           3.448     0.112     0.543  C    
     15 C           2.259    -0.627     0.677  C    
     16 C           2.311    -1.995     1.005  C    
     17 O           3.383     1.430     0.221  O    
     18 Br          4.164    -8.925     5.164  Br   
     19 H           5.184    -6.590    -1.001  H    
     20 H           3.914    -6.260    -2.186  H    
     21 H           4.045    -7.878    -1.480  H    
     22 H           2.459    -8.757     0.527  H    
     23 H           2.825    -9.776     2.689  H    
     24 H           4.853    -6.342     3.990  H    
     25 H           5.185    -4.448     2.602  H    
     26 H           5.288    -4.829     0.880  H    
     27 H           2.629    -4.372     1.573  H    
     28 H           5.652    -2.328     1.209  H    
     29 H           5.558     0.006     0.647  H    
     30 H           1.353    -0.172     0.535  H    
     31 H           1.433    -2.514     1.095  H    
     32 H           4.312     1.738     0.167  H    
@<TRIPOS>BOND
     1    1    2 1
     2    2    3 1
     3    3    8 ar
     4    3    4 ar
     5    4    5 ar
     6    5    6 ar
     7    6    7 ar
     8    6   18 1
     9    7    8 ar
    10    8    9 1
    11    9   10 1
    12   10   11 1
    13   11   16 ar
    14   11   12 ar
    15   12   13 ar
    16   13   14 ar
    17   14   15 ar
    18   14   17 1
    19   15   16 ar
    20    1   19 1
    21    1   20 1
    22    1   21 1
    23    4   22 1
    24    5   23 1
    25    7   24 1
    26    9   25 1
    27    9   26 1
    28   10   27 1
    29   12   28 1
    30   13   29 1
    31   15   30 1
    32   16   31 1
    33   17   32 1
@<TRIPOS>MOLECULE
ZINC00362335
 36 37 0 0 0
SMALL
NO_CHARGES


@<TRIPOS>ATOM
      1 C           4.872    -3.315    -0.826  C    
      2 C           4.649    -1.976    -0.242  C    
      3 C           4.417    -0.840    -1.052  C    
      4 C           4.211     0.424    -0.471  C    
      5 C           4.229     0.574     0.930  C    
      6 C           4.468    -0.553     1.742  C    
      7 C           4.672    -1.817     1.161  C    
      8 S           3.978     2.133     1.669  S    
      9 C           2.298     2.361     1.250  C    
     10 C           1.334     1.396     1.605  C    
     11 C          -0.034     1.592     1.324  C    
     12 C          -0.470     2.764     0.644  C    
     13 C           0.511     3.740     0.328  C    
     14 C           1.879     3.549     0.612  C    
     15 O           2.769     4.555     0.338  O    
     16 C           3.195     4.610    -1.033  C    
     17 N          -1.780     2.966     0.297  N    
     18 O          -2.152     3.948    -0.289  O    
     19 O          -2.725     2.091     0.516  O    
     20 O          -0.903     0.596     1.689  O    
     21 C          -1.323     0.673     3.064  C    
     22 H           5.847    -3.690    -0.522  H    
     23 H           4.840    -3.297    -1.916  H    
     24 H           4.102    -4.002    -0.471  H    
     25 H           4.396    -0.923    -2.071  H    
     26 H           4.047     1.232    -1.076  H    
     27 H           4.488    -0.461     2.760  H    
     28 H           4.843    -2.624     1.770  H    
     29 H           1.623     0.541     2.089  H    
     30 H           0.235     4.615    -0.125  H    
     31 H           3.720     3.696    -1.322  H    
     32 H           3.890     5.445    -1.145  H    
     33 H           2.348     4.775    -1.705  H    
     34 H          -0.479     0.523     3.742  H    
     35 H          -2.048    -0.122     3.241  H    
     36 H          -1.806     1.628     3.287  H    
@<TRIPOS>BOND
     1    1    2 1
     2    2    7 ar
     3    2    3 ar
     4    3    4 ar
     5    4    5 ar
     6    5    6 ar
     7    5    8 1
     8    6    7 ar
     9    8    9 1
    10    9   14 ar
    11    9   10 ar
    12   10   11 ar
    13   11   12 ar
    14   11   20 1
    15   12   13 ar
    16   12   17 1
    17   13   14 ar
    18   14   15 1
    19   15   16 1
    20   17   18 2
    21   17   19 1
    22   20   21 1
    23    1   22 1
    24    1   23 1
    25    1   24 1
    26    3   25 1
    27    4   26 1
    28    6   27 1
    29    7   28 1
    30   10   29 1
    31   13   30 1
    32   16   31 1
    33   16   32 1
    34   16   33 1
    35   21   34 1
    36   21   35 1
    37   21   36 1
@<TRIPOS>MOLECULE
ZINC00364228
 36 38 0 0 0
SMALL
NO_CHARGES


@<TRIPOS>ATOM
      1 C          -5.417     4.797    -0.174  C    
      2 C          -4.342     5.402     0.495  C    
      3 C          -3.030     5.233     0.019  C    
      4 C          -2.754     4.455    -1.136  C    
      5 C          -3.863     3.850    -1.809  C    
      6 C          -5.179     4.025    -1.322  C    
      7 C          -3.650     3.076    -2.969  C    
      8 C          -2.352     2.891    -3.467  C    
      9 C          -1.260     3.480    -2.814  C    
     10 C          -1.432     4.264    -1.647  C    
     11 C          -0.207     4.843    -1.008  C    
     12 C           0.148     4.163     0.228  C    
     13 O           0.425     2.973     0.160  O    
     14 N           0.225     4.861     1.356  N    
     15 C           0.544     4.488     2.636  C    
     16 C           0.637     3.159     3.118  C    
     17 C           0.967     2.892     4.463  C    
     18 C           1.199     3.959     5.358  C    
     19 C           1.091     5.288     4.896  C    
     20 C           0.766     5.542     3.548  C    
     21 Cl          1.348     6.600     5.939  Cl   
     22 O           1.526     3.737     6.662  O    
     23 Cl          1.072     1.276     4.967  Cl   
     24 H          -6.371     4.920     0.173  H    
     25 H          -4.516     5.968     1.328  H    
     26 H          -2.284     5.698     0.535  H    
     27 H          -5.976     3.593    -1.798  H    
     28 H          -4.435     2.641    -3.463  H    
     29 H          -2.203     2.330    -4.308  H    
     30 H          -0.327     3.320    -3.202  H    
     31 H           0.660     4.773    -1.673  H    
     32 H          -0.366     5.913    -0.851  H    
     33 H           0.048     5.810     1.250  H    
     34 H           0.449     2.370     2.501  H    
     35 H           0.693     6.512     3.229  H    
     36 H           1.498     2.769     6.796  H    
@<TRIPOS>BOND
     1    1    6 ar
     2    1    2 ar
     3    2    3 ar
     4    3    4 ar
     5    4   10 ar
     6    4    5 ar
     7    5    6 ar
     8    5    7 ar
     9    7    8 ar
    10    8    9 ar
    11    9   10 ar
    12   10   11 1
    13   11   12 1
    14   12   13 2
    15   12   14 1
    16   14   15 1
    17   15   20 ar
    18   15   16 ar
    19   16   17 ar
    20   17   18 ar
    21   17   23 1
    22   18   19 ar
    23   18   22 1
    24   19   20 ar
    25   19   21 1
    26    1   24 1
    27    2   25 1
    28    3   26 1
    29    6   27 1
    30    7   28 1
    31    8   29 1
    32    9   30 1
    33   11   31 1
    34   11   32 1
    35   14   33 1
    36   16   34 1
    37   20   35 1
    38   22   36 1
@<TRIPOS>MOLECULE
ZINC00365797
 35 36 0 0 0
SMALL
NO_CHARGES


@<TRIPOS>ATOM
      1 C           2.855    -9.408     0.699  C    
      2 C           2.888    -8.281     1.671  C    
      3 C           1.782    -7.954     2.480  C    
      4 S           2.216    -6.578     3.409  S    
      5 C           3.811    -6.393     2.794  C    
      6 C           4.010    -7.412     1.835  C    
      7 C           5.206    -7.537     1.127  C    
      8 O           5.691    -8.649     0.964  O    
      9 N           5.803    -6.473     0.608  N    
     10 N           6.884    -6.507    -0.056  N    
     11 N           4.738    -5.464     3.170  N    
     12 C           4.672    -4.528     4.112  C    
     13 O           3.664    -4.396     4.795  O    
     14 C           5.759    -3.684     4.355  C    
     15 C           6.690    -3.367     3.333  C    
     16 C           7.789    -2.523     3.583  C    
     17 C           7.985    -1.979     4.867  C    
     18 C           7.071    -2.277     5.894  C    
     19 C           5.968    -3.115     5.641  C    
     20 Cl          9.317    -0.978     5.172  Cl   
     21 C           0.462    -8.605     2.569  C    
     22 H           3.088    -9.034    -0.298  H    
     23 H           1.883    -9.897     0.652  H    
     24 H           3.588   -10.166     0.982  H    
     25 H           5.378    -5.608     0.724  H    
     26 H           7.240    -5.717    -0.410  H    
     27 H           7.334    -7.316    -0.195  H    
     28 H           5.586    -5.526     2.712  H    
     29 H           6.569    -3.729     2.384  H    
     30 H           8.440    -2.306     2.827  H    
     31 H           7.204    -1.888     6.831  H    
     32 H           5.331    -3.322     6.415  H    
     33 H          -0.032    -8.574     1.596  H    
     34 H          -0.171    -8.098     3.300  H    
     35 H           0.584    -9.647     2.876  H    
@<TRIPOS>BOND
     1    1    2 1
     2    2    6 1
     3    2    3 2
     4    3    4 1
     5    3   21 1
     6    4    5 1
     7    5    6 2
     8    5   11 1
     9    6    7 1
    10    7    8 2
    11    7    9 1
    12    9   10 1
    13   11   12 1
    14   12   13 2
    15   12   14 1
    16   14   19 ar
    17   14   15 ar
    18   15   16 ar
    19   16   17 ar
    20   17   18 ar
    21   17   20 1
    22   18   19 ar
    23    1   22 1
    24    1   23 1
    25    1   24 1
    26    9   25 1
    27   10   26 1
    28   10   27 1
    29   11   28 1
    30   15   29 1
    31   16   30 1
    32   18   31 1
    33   19   32 1
    34   21   33 1
    35   21   34 1
    36   21   35 1
@<TRIPOS>MOLECULE
ZINC00384440
 52 55 0 0 0
SMALL
NO_CHARGES


@<TRIPOS>ATOM
      1 C           3.075    -6.262    -3.936  C    
      2 C           2.663    -4.869    -3.658  C    
      3 C           3.344    -4.061    -2.709  C    
      4 C           2.935    -2.730    -2.462  C    
      5 C           1.841    -2.189    -3.167  C    
      6 C           1.167    -2.994    -4.090  C    
      7 C           1.558    -4.321    -4.351  C    
      8 C           0.131    -2.239    -4.609  C    
      9 C           0.216    -0.974    -4.016  C    
     10 N           1.248    -0.965    -3.129  N    
     11 C           1.646     0.152    -2.301  C    
     12 C           0.752     0.293    -1.039  C    
     13 C           1.029     1.607    -0.259  C    
     14 N           0.122     1.779     0.839  N    
     15 C          -1.092     2.387     0.827  C    
     16 C          -1.604     2.285     2.114  C    
     17 C          -0.657     1.595     2.850  C    
     18 N           0.370     1.312     2.029  N    
     19 C          -0.764     1.221     4.267  C    
     20 C          -1.772     3.033    -0.309  C    
     21 O           0.964    -0.828    -0.179  O    
     22 C          -0.735     0.119    -4.361  C    
     23 C          -1.552    -0.170    -5.654  C    
     24 C          -2.050    -1.640    -5.709  C    
     25 C          -0.870    -2.645    -5.622  C    
     26 H           2.247    -6.942    -3.715  H    
     27 H           3.939    -6.570    -3.341  H    
     28 H           3.336    -6.359    -4.994  H    
     29 H           4.140    -4.431    -2.189  H    
     30 H           3.441    -2.175    -1.772  H    
     31 H           1.044    -4.882    -5.034  H    
     32 H           2.685     0.056    -1.985  H    
     33 H           1.600     1.067    -2.897  H    
     34 H          -0.298     0.283    -1.336  H    
     35 H           2.057     1.594     0.114  H    
     36 H           0.952     2.459    -0.938  H    
     37 H          -2.505     2.635     2.452  H    
     38 H          -0.847     2.121     4.882  H    
     39 H           0.116     0.657     4.579  H    
     40 H          -1.653     0.603     4.416  H    
     41 H          -1.162     3.862    -0.670  H    
     42 H          -2.750     3.420    -0.021  H    
     43 H          -1.906     2.307    -1.111  H    
     44 H           0.690    -1.604    -0.707  H    
     45 H          -1.424     0.255    -3.524  H    
     46 H          -0.192     1.053    -4.509  H    
     47 H          -2.409     0.509    -5.710  H    
     48 H          -0.921     0.021    -6.528  H    
     49 H          -2.734    -1.813    -4.872  H    
     50 H          -2.604    -1.810    -6.634  H    
     51 H          -0.368    -2.717    -6.589  H    
     52 H          -1.269    -3.631    -5.371  H    
@<TRIPOS>BOND
     1    1    2 1
     2    2    7 ar
     3    2    3 ar
     4    3    4 ar
     5    4    5 ar
     6    5   10 1
     7    5    6 ar
     8    6    7 ar
     9    6    8 1
    10    8   25 1
    11    8    9 2
    12    9   10 1
    13    9   22 1
    14   10   11 1
    15   11   12 1
    16   12   13 1
    17   12   21 1
    18   13   14 1
    19   14   18 1
    20   14   15 1
    21   15   16 2
    22   15   20 1
    23   16   17 1
    24   17   18 2
    25   17   19 1
    26   22   23 1
    27   23   24 1
    28   24   25 1
    29    1   26 1
    30    1   27 1
    31    1   28 1
    32    3   29 1
    33    4   30 1
    34    7   31 1
    35   11   32 1
    36   11   33 1
    37   12   34 1
    38   13   35 1
    39   13   36 1
    40   16   37 1
    41   19   38 1
    42   19   39 1
    43   19   40 1
    44   20   41 1
    45   20   42 1
    46   20   43 1
    47   21   44 1
    48   22   45 1
    49   22   46 1
    50   23   47 1
    51   23   48 1
    52   24   49 1
    53   24   50 1
    54   25   51 1
    55   25   52 1
@<TRIPOS>MOLECULE
ZINC00388716
 22 21 0 0 0
SMALL
NO_CHARGES


@<TRIPOS>ATOM
      1 C           5.972    -5.639     1.450  C    
      2 C           5.204    -6.970     1.609  C    
      3 C           4.793    -7.576     0.241  C    
      4 C           4.110    -8.969     0.359  C    
      5 C           3.776    -9.607    -1.018  C    
      6 C           3.180   -11.025    -0.877  C    
      7 O           2.864    -8.785    -1.746  O    
      8 O           4.044    -6.747     2.409  O    
      9 H           6.885    -5.796     0.871  H    
     10 H           6.251    -5.244     2.429  H    
     11 H           5.352    -4.900     0.938  H    
     12 H           5.850    -7.670     2.144  H    
     13 H           4.111    -6.883    -0.261  H    
     14 H           5.688    -7.676    -0.380  H    
     15 H           4.783    -9.641     0.900  H    
     16 H           3.191    -8.873     0.942  H    
     17 H           4.690    -9.686    -1.611  H    
     18 H           3.892   -11.684    -0.377  H    
     19 H           2.963   -11.439    -1.864  H    
     20 H           2.256   -10.998    -0.297  H    
     21 H           2.063    -8.728    -1.183  H    
     22 H           4.384    -6.412     3.267  H    
@<TRIPOS>BOND
     1    1    2 1
     2    2    3 1
     3    2    8 1
     4    3    4 1
     5    4    5 1
     6    5    6 1
     7    5    7 1
     8    1    9 1
     9    1   10 1
    10    1   11 1
    11    2   12 1
    12    3   13 1
    13    3   14 1
    14    4   15 1
    15    4   16 1
    16    5   17 1
    17    6   18 1
    18    6   19 1
    19    6   20 1
    20    7   21 1
    21    8   22 1
@<TRIPOS>MOLECULE
ZINC00393598
 25 25 0 0 0
SMALL
NO_CHARGES


@<TRIPOS>ATOM
      1 C           4.304    -8.026    -2.484  C    
      2 C           4.467    -7.850    -0.951  C    
      3 C           5.755    -8.355    -0.433  C    
      4 O           6.720    -8.867    -1.230  O    
      5 O           4.365    -6.469    -0.564  O    
      6 C           3.268    -5.668    -0.583  C    
      7 O           2.085    -6.156    -1.024  O    
      8 N           3.436    -4.397    -0.147  N    
      9 C           2.535    -3.380     0.010  C    
     10 C           1.126    -3.522     0.042  C    
     11 C           0.287    -2.404     0.216  C    
     12 C           0.845    -1.125     0.387  C    
     13 C           2.242    -0.965     0.386  C    
     14 C           3.073    -2.089     0.204  C    
     15 Cl          2.912     0.571     0.610  Cl   
     16 O           5.998    -8.311     0.896  O    
     17 H           5.079    -7.473    -3.018  H    
     18 H           3.330    -7.658    -2.811  H    
     19 H           4.372    -9.083    -2.754  H    
     20 H           3.674    -8.416    -0.455  H    
     21 H           4.358    -4.163     0.066  H    
     22 H           0.689    -4.435    -0.033  H    
     23 H          -0.731    -2.521     0.227  H    
     24 H           0.232    -0.319     0.519  H    
     25 H           4.090    -1.956     0.212  H    
@<TRIPOS>BOND
     1    1    2 1
     2    2    3 1
     3    2    5 1
     4    3    4 2
     5    3   16 1
     6    5    6 1
     7    6    7 2
     8    6    8 1
     9    8    9 1
    10    9   14 ar
    11    9   10 ar
    12   10   11 ar
    13   11   12 ar
    14   12   13 ar
    15   13   14 ar
    16   13   15 1
    17    1   17 1
    18    1   18 1
    19    1   19 1
    20    2   20 1
    21    8   21 1
    22   10   22 1
    23   11   23 1
    24   12   24 1
    25   14   25 1
@<TRIPOS>MOLECULE
ZINC00406874
 42 44 0 0 0
SMALL
NO_CHARGES


@<TRIPOS>ATOM
      1 C           9.211    -7.154     2.696  C    
      2 C           7.685    -7.278     2.497  C    
      3 C           6.928    -5.954     2.800  C    
      4 C           5.443    -5.898     2.613  C    
      5 C           4.681    -7.024     2.209  C    
      6 C           3.278    -6.960     2.013  C    
      7 C           2.465    -8.055     1.610  C    
      8 C           1.120    -7.913     1.516  C    
      9 C           0.514    -6.697     1.775  C    
     10 O          -0.826    -6.547     1.660  O    
     11 O           1.278    -5.629     2.137  O    
     12 C           2.639    -5.721     2.270  C    
     13 C           3.370    -4.595     2.678  C    
     14 C           4.769    -4.670     2.855  C    
     15 O           5.521    -3.591     3.249  O    
     16 C           5.292    -2.319     3.675  C    
     17 O           4.052    -1.810     3.844  O    
     18 C           6.459    -1.478     3.980  C    
     19 C           3.016    -9.292     1.254  C    
     20 C           2.747   -10.452     2.021  C    
     21 C           3.302   -11.695     1.659  C    
     22 C           4.131   -11.795     0.526  C    
     23 C           4.400   -10.653    -0.250  C    
     24 C           3.843    -9.410     0.109  C    
     25 H           9.620    -6.380     2.044  H    
     26 H           9.693    -8.103     2.454  H    
     27 H           9.438    -6.900     3.732  H    
     28 H           7.498    -7.573     1.461  H    
     29 H           7.317    -8.068     3.156  H    
     30 H           7.140    -5.684     3.839  H    
     31 H           7.365    -5.182     2.161  H    
     32 H           5.154    -7.915     2.063  H    
     33 H           0.540    -8.671     1.228  H    
     34 H           2.867    -3.724     2.840  H    
     35 H           7.064    -1.958     4.751  H    
     36 H           6.148    -0.491     4.335  H    
     37 H           7.064    -1.351     3.079  H    
     38 H           2.151   -10.399     2.853  H    
     39 H           3.103   -12.525     2.221  H    
     40 H           4.534   -12.698     0.265  H    
     41 H           5.000   -10.726    -1.077  H    
     42 H           4.046    -8.592    -0.472  H    
@<TRIPOS>BOND
     1    1    2 1
     2    2    3 1
     3    3    4 1
     4    4   14 ar
     5    4    5 ar
     6    5    6 ar
     7    6   12 ar
     8    6    7 1
     9    7    8 2
    10    7   19 1
    11    8    9 1
    12    9   10 2
    13    9   11 1
    14   11   12 1
    15   12   13 ar
    16   13   14 ar
    17   14   15 1
    18   15   16 1
    19   16   17 2
    20   16   18 1
    21   19   24 ar
    22   19   20 ar
    23   20   21 ar
    24   21   22 ar
    25   22   23 ar
    26   23   24 ar
    27    1   25 1
    28    1   26 1
    29    1   27 1
    30    2   28 1
    31    2   29 1
    32    3   30 1
    33    3   31 1
    34    5   32 1
    35    8   33 1
    36   13   34 1
    37   18   35 1
    38   18   36 1
    39   18   37 1
    40   20   38 1
    41   21   39 1
    42   22   40 1
    43   23   41 1
    44   24   42 1
@<TRIPOS>MOLECULE
ZINC00423003
 35 37 0 0 0
SMALL
NO_CHARGES


@<TRIPOS>ATOM
      1 C           4.488   -12.280    -0.417  C    
      2 C           3.961   -11.053    -0.857  C    
      3 C           4.514    -9.844    -0.394  C    
      4 C           5.608    -9.847     0.504  C    
      5 C           6.124   -11.089     0.940  C    
      6 C           5.568   -12.299     0.484  C    
      7 C           6.193    -8.569     0.981  C    
      8 N           5.407    -8.037     2.046  N    
      9 C           5.671    -6.922     2.711  C    
     10 O           6.639    -6.230     2.422  O    
     11 C           4.768    -6.520     3.778  C    
     12 N           5.177    -5.319     4.504  N    
     13 C           4.578    -4.126     4.269  C    
     14 O           3.694    -3.973     3.435  O    
     15 C           4.978    -2.998     4.968  C    
     16 C           6.007    -3.107     5.908  C    
     17 C           6.334    -1.902     6.558  C    
     18 C           5.565    -0.809     6.144  C    
     19 S           4.459    -1.358     4.944  S    
     20 N           6.587    -4.324     6.103  N    
     21 C           6.180    -5.392     5.417  C    
     22 O           6.775    -6.433     5.668  O    
     23 H           4.086   -13.160    -0.751  H    
     24 H           3.179   -11.041    -1.516  H    
     25 H           4.119    -8.959    -0.725  H    
     26 H           6.908   -11.123     1.599  H    
     27 H           5.950   -13.192     0.805  H    
     28 H           7.216    -8.726     1.335  H    
     29 H           6.236    -7.853     0.155  H    
     30 H           4.621    -8.541     2.316  H    
     31 H           3.778    -6.404     3.329  H    
     32 H           4.666    -7.350     4.485  H    
     33 H           7.067    -1.830     7.266  H    
     34 H           5.643     0.149     6.488  H    
     35 H           7.306    -4.412     6.752  H    
@<TRIPOS>BOND
     1    1    6 ar
     2    1    2 ar
     3    2    3 ar
     4    3    4 ar
     5    4    5 ar
     6    4    7 1
     7    5    6 ar
     8    7    8 1
     9    8    9 1
    10    9   10 2
    11    9   11 1
    12   11   12 1
    13   12   21 1
    14   12   13 1
    15   13   14 2
    16   13   15 1
    17   15   19 1
    18   15   16 2
    19   16   17 1
    20   16   20 1
    21   17   18 2
    22   18   19 1
    23   20   21 1
    24   21   22 2
    25    1   23 1
    26    2   24 1
    27    3   25 1
    28    5   26 1
    29    6   27 1
    30    7   28 1
    31    7   29 1
    32    8   30 1
    33   11   31 1
    34   11   32 1
    35   17   33 1
    36   18   34 1
    37   20   35 1
@<TRIPOS>MOLECULE
ZINC00425963
 44 46 0 0 0
SMALL
NO_CHARGES


@<TRIPOS>ATOM
      1 C           3.668    -3.986    -8.383  C    
      2 N           4.585    -3.510    -7.450  N    
      3 C           4.314    -2.904    -6.331  C    
      4 S           2.809    -2.179    -5.980  S    
      5 N           5.281    -2.770    -5.460  N    
      6 C           6.032    -1.561    -5.445  C    
      7 C           7.558    -1.820    -5.316  C    
      8 N           7.832    -2.858    -4.369  N    
      9 C           9.011    -3.127    -3.773  C    
     10 C           8.860    -4.260    -2.983  C    
     11 C           7.548    -4.684    -3.129  C    
     12 C           6.929    -3.791    -4.001  C    
     13 C           5.544    -3.836    -4.541  C    
     14 C           4.530    -3.884    -3.440  C    
     15 C           3.622    -4.967    -3.344  C    
     16 C           2.659    -5.014    -2.321  C    
     17 C           2.586    -3.983    -1.364  C    
     18 C           3.457    -2.877    -1.465  C    
     19 C           4.434    -2.846    -2.482  C    
     20 O           3.397    -1.860    -0.550  O    
     21 C           2.529    -0.788    -0.959  C    
     22 O           1.635    -4.028    -0.380  O    
     23 C           2.071    -4.744     0.790  C    
     24 H           2.967    -4.681    -7.915  H    
     25 H           4.208    -4.517    -9.168  H    
     26 H           3.117    -3.160    -8.839  H    
     27 H           5.485    -3.715    -7.608  H    
     28 H           5.863    -0.939    -6.333  H    
     29 H           5.710    -0.972    -4.582  H    
     30 H           7.964    -2.119    -6.287  H    
     31 H           8.050    -0.891    -5.009  H    
     32 H           9.878    -2.598    -3.888  H    
     33 H           9.584    -4.707    -2.417  H    
     34 H           7.126    -5.508    -2.696  H    
     35 H           5.521    -4.778    -5.103  H    
     36 H           3.652    -5.730    -4.024  H    
     37 H           2.014    -5.806    -2.269  H    
     38 H           5.078    -2.052    -2.517  H    
     39 H           2.868    -0.334    -1.895  H    
     40 H           2.547    -0.022    -0.184  H    
     41 H           1.498    -1.133    -1.072  H    
     42 H           2.303    -5.786     0.554  H    
     43 H           1.258    -4.733     1.517  H    
     44 H           2.944    -4.270     1.246  H    
@<TRIPOS>BOND
     1    1    2 1
     2    2    3 1
     3    3    4 2
     4    3    5 1
     5    5   13 1
     6    5    6 1
     7    6    7 1
     8    7    8 1
     9    8   12 1
    10    8    9 1
    11    9   10 2
    12   10   11 1
    13   11   12 2
    14   12   13 1
    15   13   14 1
    16   14   19 ar
    17   14   15 ar
    18   15   16 ar
    19   16   17 ar
    20   17   18 ar
    21   17   22 1
    22   18   19 ar
    23   18   20 1
    24   20   21 1
    25   22   23 1
    26    1   24 1
    27    1   25 1
    28    1   26 1
    29    2   27 1
    30    6   28 1
    31    6   29 1
    32    7   30 1
    33    7   31 1
    34    9   32 1
    35   10   33 1
    36   11   34 1
    37   13   35 1
    38   15   36 1
    39   16   37 1
    40   19   38 1
    41   21   39 1
    42   21   40 1
    43   21   41 1
    44   23   42 1
    45   23   43 1
    46   23   44 1
@<TRIPOS>MOLECULE
ZINC00433137
 36 38 0 0 0
SMALL
NO_CHARGES


@<TRIPOS>ATOM
      1 C           3.929   -11.095     0.593  C    
      2 C           4.348   -12.438     0.623  C    
      3 C           5.570   -12.779     1.228  C    
      4 C           6.371   -11.777     1.797  C    
      5 C           5.946   -10.436     1.775  C    
      6 C           4.711   -10.067     1.176  C    
      7 C           4.257    -8.746     1.098  C    
      8 C           4.626    -7.727     1.903  C    
      9 C           4.207    -6.438     1.779  C    
     10 O           3.466    -6.093     0.865  O    
     11 N           4.640    -5.538     2.654  N    
     12 C           4.348    -4.141     2.624  C    
     13 C           5.021    -3.464     3.759  C    
     14 C           6.135    -2.606     3.546  C    
     15 C           6.782    -1.978     4.629  C    
     16 C           6.301    -2.201     5.929  C    
     17 C           5.211    -3.032     6.152  C    
     18 C           4.566    -3.678     5.084  C    
     19 O           4.915    -3.122     7.463  O    
     20 C           5.788    -2.120     8.023  C    
     21 O           6.785    -1.688     7.075  O    
     22 F           5.965   -14.023     1.251  F    
     23 H           3.033   -10.879     0.147  H    
     24 H           3.763   -13.163     0.202  H    
     25 H           7.266   -12.019     2.230  H    
     26 H           6.566    -9.731     2.176  H    
     27 H           3.574    -8.549     0.403  H    
     28 H           5.239    -7.930     2.655  H    
     29 H           5.217    -5.856     3.366  H    
     30 H           4.693    -3.734     1.669  H    
     31 H           3.269    -3.978     2.693  H    
     32 H           6.488    -2.444     2.600  H    
     33 H           7.590    -1.371     4.476  H    
     34 H           3.771    -4.293     5.276  H    
     35 H           5.190    -1.254     8.329  H    
     36 H           6.285    -2.522     8.908  H    
@<TRIPOS>BOND
     1    1    6 ar
     2    1    2 ar
     3    2    3 ar
     4    3    4 ar
     5    3   22 1
     6    4    5 ar
     7    5    6 ar
     8    6    7 1
     9    7    8 2
    10    8    9 1
    11    9   10 2
    12    9   11 1
    13   11   12 1
    14   12   13 1
    15   13   18 ar
    16   13   14 ar
    17   14   15 ar
    18   15   16 ar
    19   16   21 1
    20   16   17 ar
    21   17   18 ar
    22   17   19 1
    23   19   20 1
    24   20   21 1
    25    1   23 1
    26    2   24 1
    27    4   25 1
    28    5   26 1
    29    7   27 1
    30    8   28 1
    31   11   29 1
    32   12   30 1
    33   12   31 1
    34   14   32 1
    35   15   33 1
    36   18   34 1
    37   20   35 1
    38   20   36 1
@<TRIPOS>MOLECULE
ZINC00436534
 34 35 0 0 0
SMALL
NO_CHARGES


@<TRIPOS>ATOM
      1 C          -0.701     0.136     5.244  C    
      2 O          -0.225     1.386     4.714  O    
      3 C           0.859     1.249     3.885  C    
      4 C           0.625     1.109     2.501  C    
      5 C           1.702     0.998     1.606  C    
      6 C           3.019     1.035     2.090  C    
      7 C           3.260     1.196     3.466  C    
      8 C           2.185     1.316     4.384  C    
      9 N           2.330     1.492     5.726  N    
     10 C           3.442     1.630     6.454  C    
     11 C           3.415     1.762     7.790  C    
     12 C           2.288     1.729     8.541  C    
     13 O           1.887     0.603     8.815  O    
     14 C           1.608     2.873     8.996  C    
     15 C           2.037     4.189     8.670  C    
     16 C           1.342     5.323     9.128  C    
     17 C           0.197     5.171     9.926  C    
     18 C          -0.252     3.884    10.264  C    
     19 C           0.445     2.751     9.804  C    
     20 H          -1.031    -0.534     4.446  H    
     21 H          -1.556     0.344     5.888  H    
     22 H           0.065    -0.362     5.843  H    
     23 H          -0.332     1.085     2.143  H    
     24 H           1.528     0.891     0.605  H    
     25 H           3.804     0.952     1.440  H    
     26 H           4.230     1.221     3.783  H    
     27 H           1.502     1.535     6.229  H    
     28 H           4.329     1.662     6.009  H    
     29 H           4.277     1.899     8.270  H    
     30 H           2.866     4.342     8.090  H    
     31 H           1.669     6.260     8.881  H    
     32 H          -0.308     5.995    10.261  H    
     33 H          -1.086     3.771    10.845  H    
     34 H           0.086     1.830    10.071  H    
@<TRIPOS>BOND
     1    1    2 1
     2    2    3 1
     3    3    8 ar
     4    3    4 ar
     5    4    5 ar
     6    5    6 ar
     7    6    7 ar
     8    7    8 ar
     9    8    9 1
    10    9   10 1
    11   10   11 2
    12   11   12 1
    13   12   13 2
    14   12   14 1
    15   14   19 ar
    16   14   15 ar
    17   15   16 ar
    18   16   17 ar
    19   17   18 ar
    20   18   19 ar
    21    1   20 1
    22    1   21 1
    23    1   22 1
    24    4   23 1
    25    5   24 1
    26    6   25 1
    27    7   26 1
    28    9   27 1
    29   10   28 1
    30   11   29 1
    31   15   30 1
    32   16   31 1
    33   17   32 1
    34   18   33 1
    35   19   34 1
@<TRIPOS>MOLECULE
ZINC00443792
 34 34 0 0 0
SMALL
NO_CHARGES


@<TRIPOS>ATOM
      1 C           5.493    -8.032     1.301  C    
      2 C           5.360    -6.935     0.219  C    
      3 C           3.881    -6.518    -0.044  C    
      4 C           3.703    -5.416    -1.143  C    
      5 C           4.096    -3.995    -0.640  C    
      6 C           2.371    -5.443    -1.790  C    
      7 O           2.402    -5.717    -2.988  O    
      8 N           1.162    -5.211    -1.233  N    
      9 C          -0.051    -5.266    -2.029  C    
     10 C           0.984    -4.902     0.092  C    
     11 C           0.768    -5.928     1.047  C    
     12 C           0.501    -5.604     2.390  C    
     13 C           0.403    -4.253     2.786  C    
     14 C           0.569    -3.227     1.834  C    
     15 C           0.844    -3.550     0.492  C    
     16 H           5.113    -7.668     2.258  H    
     17 H           6.544    -8.305     1.425  H    
     18 H           4.932    -8.925     1.010  H    
     19 H           5.934    -6.065     0.546  H    
     20 H           5.805    -7.308    -0.710  H    
     21 H           3.334    -7.416    -0.350  H    
     22 H           3.458    -6.173     0.902  H    
     23 H           4.451    -5.648    -1.916  H    
     24 H           3.584    -3.745     0.291  H    
     25 H           3.850    -3.240    -1.392  H    
     26 H           5.173    -3.948    -0.454  H    
     27 H          -0.001    -4.522    -2.828  H    
     28 H          -0.965    -5.070    -1.457  H    
     29 H          -0.156    -6.257    -2.476  H    
     30 H           0.818    -6.912     0.765  H    
     31 H           0.367    -6.348     3.079  H    
     32 H           0.204    -4.018     3.761  H    
     33 H           0.483    -2.247     2.119  H    
     34 H           0.947    -2.800    -0.197  H    
@<TRIPOS>BOND
     1    1    2 1
     2    2    3 1
     3    3    4 1
     4    4    5 1
     5    4    6 1
     6    6    7 2
     7    6    8 1
     8    8    9 1
     9    8   10 1
    10   10   15 ar
    11   10   11 ar
    12   11   12 ar
    13   12   13 ar
    14   13   14 ar
    15   14   15 ar
    16    1   16 1
    17    1   17 1
    18    1   18 1
    19    2   19 1
    20    2   20 1
    21    3   21 1
    22    3   22 1
    23    4   23 1
    24    5   24 1
    25    5   25 1
    26    5   26 1
    27    9   27 1
    28    9   28 1
    29    9   29 1
    30   11   30 1
    31   12   31 1
    32   13   32 1
    33   14   33 1
    34   15   34 1
@<TRIPOS>MOLECULE
ZINC00448800
 36 37 0 0 0
SMALL
NO_CHARGES


@<TRIPOS>ATOM
      1 C           7.455    -8.129     1.487  C    
      2 C           5.979    -8.247     1.337  C    
      3 C           5.374    -9.521     1.450  C    
      4 C           3.985    -9.675     1.317  C    
      5 C           3.176    -8.553     1.088  C    
      6 C           3.759    -7.281     0.974  C    
      7 C           5.164    -7.109     1.067  C    
      8 N           5.766    -5.892     0.958  N    
      9 C           5.297    -4.699     0.566  C    
     10 C           5.878    -3.535     1.239  C    
     11 C           5.521    -3.360     2.653  C    
     12 O           4.611    -4.056     3.101  O    
     13 C           6.097    -2.380     3.489  C    
     14 C           7.069    -1.456     3.016  C    
     15 C           7.641    -0.490     3.864  C    
     16 C           7.267    -0.427     5.216  C    
     17 C           6.315    -1.331     5.715  C    
     18 C           5.743    -2.294     4.864  C    
     19 Br          8.038     0.843     6.338  Br   
     20 C           4.480    -4.555    -0.492  C    
     21 H           7.885    -7.674     0.593  H    
     22 H           7.940    -9.095     1.635  H    
     23 H           7.682    -7.503     2.351  H    
     24 H           5.941   -10.352     1.634  H    
     25 H           3.563   -10.602     1.395  H    
     26 H           2.161    -8.659     1.019  H    
     27 H           3.137    -6.482     0.847  H    
     28 H           6.691    -5.873     1.244  H    
     29 H           6.963    -3.642     1.160  H    
     30 H           5.609    -2.607     0.721  H    
     31 H           7.371    -1.455     2.040  H    
     32 H           8.338     0.160     3.497  H    
     33 H           6.043    -1.296     6.699  H    
     34 H           5.057    -2.934     5.272  H    
     35 H           4.173    -3.660    -0.788  H    
     36 H           4.203    -5.336    -1.036  H    
@<TRIPOS>BOND
     1    1    2 1
     2    2    7 ar
     3    2    3 ar
     4    3    4 ar
     5    4    5 ar
     6    5    6 ar
     7    6    7 ar
     8    7    8 1
     9    8    9 1
    10    9   10 1
    11    9   20 2
    12   10   11 1
    13   11   12 2
    14   11   13 1
    15   13   18 ar
    16   13   14 ar
    17   14   15 ar
    18   15   16 ar
    19   16   17 ar
    20   16   19 1
    21   17   18 ar
    22    1   21 1
    23    1   22 1
    24    1   23 1
    25    3   24 1
    26    4   25 1
    27    5   26 1
    28    6   27 1
    29    8   28 1
    30   10   29 1
    31   10   30 1
    32   14   31 1
    33   15   32 1
    34   17   33 1
    35   18   34 1
    36   20   35 1
    37   20   36 1
@<TRIPOS>MOLECULE
ZINC00466847
 35 37 0 0 0
SMALL
NO_CHARGES


@<TRIPOS>ATOM
      1 C           7.094   -12.125     0.575  C    
      2 C           6.275   -12.201     1.717  C    
      3 C           5.594   -11.057     2.174  C    
      4 C           5.717    -9.823     1.490  C    
      5 C           6.554    -9.757     0.347  C    
      6 C           7.236   -10.902    -0.109  C    
      7 C           4.984    -8.621     1.955  C    
      8 S           3.739    -8.139     0.731  S    
      9 C           2.966    -6.868     1.568  C    
     10 N           3.559    -6.059     2.359  N    
     11 C           2.803    -5.159     2.881  C    
     12 C           3.236    -4.245     3.775  C    
     13 C           4.514    -4.153     4.248  C    
     14 C           4.897    -3.255     5.173  C    
     15 C           6.192    -3.158     5.654  C    
     16 C           6.660    -2.195     6.547  C    
     17 C           8.004    -2.452     6.763  C    
     18 C           8.329    -3.567     6.002  C    
     19 O           7.227    -3.980     5.335  O    
     20 C           1.541    -5.277     2.427  C    
     21 O           0.593    -4.579     2.758  O    
     22 S           1.309    -6.561     1.338  S    
     23 H           7.584   -12.961     0.240  H    
     24 H           6.172   -13.090     2.214  H    
     25 H           5.005   -11.135     3.007  H    
     26 H           6.669    -8.876    -0.162  H    
     27 H           7.834   -10.846    -0.937  H    
     28 H           4.483    -8.812     2.904  H    
     29 H           5.693    -7.803     2.107  H    
     30 H           2.567    -3.595     4.124  H    
     31 H           5.199    -4.781     3.890  H    
     32 H           4.224    -2.622     5.537  H    
     33 H           6.119    -1.437     6.965  H    
     34 H           8.634    -1.927     7.372  H    
     35 H           9.249    -4.005     5.948  H    
@<TRIPOS>BOND
     1    1    6 ar
     2    1    2 ar
     3    2    3 ar
     4    3    4 ar
     5    4    5 ar
     6    4    7 1
     7    5    6 ar
     8    7    8 1
     9    8    9 1
    10    9   22 1
    11    9   10 2
    12   10   11 1
    13   11   12 2
    14   11   20 1
    15   12   13 1
    16   13   14 2
    17   14   15 1
    18   15   19 1
    19   15   16 2
    20   16   17 1
    21   17   18 2
    22   18   19 1
    23   20   21 2
    24   20   22 1
    25    1   23 1
    26    2   24 1
    27    3   25 1
    28    5   26 1
    29    6   27 1
    30    7   28 1
    31    7   29 1
    32   12   30 1
    33   13   31 1
    34   14   32 1
    35   16   33 1
    36   17   34 1
    37   18   35 1
@<TRIPOS>MOLECULE
ZINC00470934
 38 40 0 0 0
SMALL
NO_CHARGES


@<TRIPOS>ATOM
      1 C           7.837    -6.005     2.137  C    
      2 N           6.606    -6.288     2.820  N    
      3 C           6.414    -6.927     3.998  C    
      4 N           5.101    -6.878     4.283  N    
      5 N           4.487    -6.262     3.331  N    
      6 C           5.388    -5.885     2.410  C    
      7 S           5.018    -5.024     0.935  S    
      8 C           3.455    -4.223     1.398  C    
      9 C           2.890    -3.326     0.392  C    
     10 O           3.529    -3.130    -0.637  O    
     11 N           1.710    -2.704     0.548  N    
     12 C           0.857    -2.844     1.693  C    
     13 C          -0.466    -2.151     1.318  C    
     14 C          -0.056    -1.150     0.232  C    
     15 C           1.162    -1.814    -0.435  C    
     16 C           7.347    -7.572     4.849  C    
     17 C           7.292    -7.370     6.247  C    
     18 C           8.223    -8.019     7.081  C    
     19 N           9.151    -8.849     6.542  N    
     20 C           9.222    -9.089     5.210  C    
     21 C           8.316    -8.463     4.333  C    
     22 H           7.858    -6.529     1.180  H    
     23 H           8.709    -6.306     2.715  H    
     24 H           7.921    -4.933     1.956  H    
     25 H           2.736    -5.019     1.605  H    
     26 H           3.624    -3.653     2.315  H    
     27 H           0.657    -3.895     1.927  H    
     28 H           1.313    -2.356     2.560  H    
     29 H          -1.171    -2.881     0.905  H    
     30 H          -0.925    -1.656     2.181  H    
     31 H          -0.861    -0.965    -0.484  H    
     32 H           0.233    -0.201     0.695  H    
     33 H           1.885    -1.047    -0.735  H    
     34 H           0.852    -2.383    -1.317  H    
     35 H           6.596    -6.744     6.663  H    
     36 H           8.205    -7.872     8.090  H    
     37 H           9.931    -9.731     4.851  H    
     38 H           8.360    -8.677     3.333  H    
@<TRIPOS>BOND
     1    1    2 1
     2    2    6 1
     3    2    3 1
     4    3    4 2
     5    3   16 1
     6    4    5 1
     7    5    6 2
     8    6    7 1
     9    7    8 1
    10    8    9 1
    11    9   10 2
    12    9   11 1
    13   11   15 1
    14   11   12 1
    15   12   13 1
    16   13   14 1
    17   14   15 1
    18   16   21 ar
    19   16   17 ar
    20   17   18 ar
    21   18   19 ar
    22   19   20 ar
    23   20   21 ar
    24    1   22 1
    25    1   23 1
    26    1   24 1
    27    8   25 1
    28    8   26 1
    29   12   27 1
    30   12   28 1
    31   13   29 1
    32   13   30 1
    33   14   31 1
    34   14   32 1
    35   15   33 1
    36   15   34 1
    37   17   35 1
    38   18   36 1
    39   20   37 1
    40   21   38 1
@<TRIPOS>MOLECULE
ZINC00471284
 36 37 0 0 0
SMALL
NO_CHARGES


@<TRIPOS>ATOM
      1 C           7.327    -7.318     1.738  C    
      2 O           6.117    -7.518     0.982  O    
      3 C           5.168    -8.272     1.627  C    
      4 C           5.341    -9.663     1.807  C    
      5 C           4.348   -10.449     2.439  C    
      6 C           3.149    -9.816     2.850  C    
      7 C           2.961    -8.434     2.655  C    
      8 C           3.970    -7.653     2.055  C    
      9 O           3.711    -6.324     1.826  O    
     10 C           4.410    -5.468     2.630  C    
     11 C           4.191    -5.367     4.018  C    
     12 C           4.933    -4.428     4.760  C    
     13 C           5.878    -3.584     4.130  C    
     14 C           6.040    -3.728     2.732  C    
     15 N           5.311    -4.640     2.044  N    
     16 C           6.642    -2.588     4.935  C    
     17 F           7.514    -1.814     4.208  F    
     18 F           5.774    -1.729     5.565  F    
     19 F           7.385    -3.235     5.897  F    
     20 C           4.536   -11.915     2.638  C    
     21 C           4.636   -12.262     4.050  C    
     22 C           5.725   -12.800     4.615  C    
     23 H           7.128    -6.951     2.756  H    
     24 H           7.933    -6.573     1.216  H    
     25 H           7.902    -8.254     1.794  H    
     26 H           6.201   -10.103     1.472  H    
     27 H           2.398   -10.363     3.284  H    
     28 H           2.084    -7.995     2.946  H    
     29 H           3.504    -5.966     4.482  H    
     30 H           4.775    -4.357     5.769  H    
     31 H           6.701    -3.147     2.216  H    
     32 H           3.682   -12.441     2.214  H    
     33 H           5.418   -12.262     2.091  H    
     34 H           3.844   -12.093     4.632  H    
     35 H           5.733   -13.014     5.585  H    
     36 H           6.543   -12.993     4.080  H    
@<TRIPOS>BOND
     1    1    2 1
     2    2    3 1
     3    3    8 ar
     4    3    4 ar
     5    4    5 ar
     6    5    6 ar
     7    5   20 1
     8    6    7 ar
     9    7    8 ar
    10    8    9 1
    11    9   10 1
    12   10   15 ar
    13   10   11 ar
    14   11   12 ar
    15   12   13 ar
    16   13   14 ar
    17   13   16 1
    18   14   15 ar
    19   16   17 1
    20   16   18 1
    21   16   19 1
    22   20   21 1
    23   21   22 2
    24    1   23 1
    25    1   24 1
    26    1   25 1
    27    4   26 1
    28    6   27 1
    29    7   28 1
    30   11   29 1
    31   12   30 1
    32   14   31 1
    33   20   32 1
    34   20   33 1
    35   21   34 1
    36   22   35 1
    37   22   36 1
@<TRIPOS>MOLECULE
ZINC00473511
 44 46 0 0 0
SMALL
NO_CHARGES


@<TRIPOS>ATOM
      1 C           6.194     4.634    -7.690  C    
      2 O           5.009     4.570    -8.502  O    
      3 C           4.152     3.574    -8.123  C    
      4 C           4.250     2.294    -8.698  C    
      5 C           3.348     1.278    -8.331  C    
      6 C           2.311     1.509    -7.387  C    
      7 C           2.226     2.816    -6.832  C    
      8 C           3.125     3.833    -7.197  C    
      9 C           1.398     0.504    -7.014  C    
     10 O           0.611     0.726    -6.101  O    
     11 N           1.372    -0.681    -7.620  N    
     12 C           0.556    -1.761    -7.412  C    
     13 C           0.667    -3.010    -8.061  C    
     14 C          -0.349    -3.948    -7.700  C    
     15 C          -1.309    -3.444    -6.797  C    
     16 S          -0.846    -1.836    -6.420  S    
     17 C          -2.551    -4.027    -6.232  C    
     18 C          -3.092    -5.354    -6.836  C    
     19 C          -3.009    -5.413    -8.386  C    
     20 C          -1.608    -5.793    -8.949  C    
     21 C          -0.375    -5.384    -8.097  C    
     22 C           1.673    -3.263    -8.989  C    
     23 O           1.425    -3.829   -10.044  O    
     24 N           2.918    -2.881    -8.802  N    
     25 H           5.949     4.838    -6.644  H    
     26 H           6.814     5.452    -8.058  H    
     27 H           6.773     3.709    -7.757  H    
     28 H           4.984     2.099    -9.384  H    
     29 H           3.474     0.363    -8.767  H    
     30 H           1.495     3.051    -6.155  H    
     31 H           3.031     4.766    -6.788  H    
     32 H           2.021    -0.802    -8.325  H    
     33 H          -2.405    -4.164    -5.158  H    
     34 H          -3.337    -3.277    -6.359  H    
     35 H          -2.567    -6.207    -6.401  H    
     36 H          -4.142    -5.452    -6.542  H    
     37 H          -3.734    -6.148    -8.748  H    
     38 H          -3.311    -4.444    -8.794  H    
     39 H          -1.571    -6.880    -9.069  H    
     40 H          -1.505    -5.359    -9.947  H    
     41 H           0.520    -5.667    -8.651  H    
     42 H          -0.347    -5.987    -7.186  H    
     43 H           3.590    -3.064    -9.478  H    
     44 H           3.172    -2.428    -7.983  H    
@<TRIPOS>BOND
     1    1    2 1
     2    2    3 1
     3    3    8 ar
     4    3    4 ar
     5    4    5 ar
     6    5    6 ar
     7    6    7 ar
     8    6    9 1
     9    7    8 ar
    10    9   10 2
    11    9   11 1
    12   11   12 1
    13   12   16 1
    14   12   13 2
    15   13   14 1
    16   13   22 1
    17   14   21 1
    18   14   15 2
    19   15   16 1
    20   15   17 1
    21   17   18 1
    22   18   19 1
    23   19   20 1
    24   20   21 1
    25   22   23 2
    26   22   24 1
    27    1   25 1
    28    1   26 1
    29    1   27 1
    30    4   28 1
    31    5   29 1
    32    7   30 1
    33    8   31 1
    34   11   32 1
    35   17   33 1
    36   17   34 1
    37   18   35 1
    38   18   36 1
    39   19   37 1
    40   19   38 1
    41   20   39 1
    42   20   40 1
    43   21   41 1
    44   21   42 1
    45   24   43 1
    46   24   44 1
@<TRIPOS>MOLECULE
ZINC00528926
 30 31 0 0 0
SMALL
NO_CHARGES


@<TRIPOS>ATOM
      1 C           7.865    -5.697    -1.570  C    
      2 N           6.881    -6.017    -0.592  N    
      3 C           6.719    -5.473     0.632  C    
      4 N           5.675    -6.086     1.219  N    
      5 C           5.218    -6.989     0.337  C    
      6 N           5.978    -6.931    -0.771  N    
      7 N           4.171    -7.815     0.543  N    
      8 O           3.828    -8.604    -0.301  O    
      9 O           3.509    -7.785     1.663  O    
     10 O           7.531    -4.492     1.155  O    
     11 C           6.987    -3.801     2.201  C    
     12 C           7.139    -4.277     3.518  C    
     13 C           6.606    -3.549     4.597  C    
     14 C           5.925    -2.323     4.387  C    
     15 C           5.790    -1.851     3.057  C    
     16 C           6.316    -2.581     1.975  C    
     17 C           5.404    -1.586     5.484  C    
     18 O           4.750    -0.412     5.291  O    
     19 O           5.558    -2.043     6.758  O    
     20 C           5.107    -1.409     7.958  C    
     21 H           8.473    -6.579    -1.780  H    
     22 H           8.523    -4.890    -1.237  H    
     23 H           7.370    -5.381    -2.491  H    
     24 H           7.630    -5.159     3.690  H    
     25 H           6.733    -3.923     5.541  H    
     26 H           5.311    -0.967     2.860  H    
     27 H           6.215    -2.223     1.020  H    
     28 H           5.587    -0.436     8.075  H    
     29 H           5.367    -2.037     8.810  H    
     30 H           4.024    -1.280     7.928  H    
@<TRIPOS>BOND
     1    1    2 1
     2    2    6 1
     3    2    3 1
     4    3    4 2
     5    3   10 1
     6    4    5 1
     7    5    6 2
     8    5    7 1
     9    7    8 2
    10    7    9 1
    11   10   11 1
    12   11   16 ar
    13   11   12 ar
    14   12   13 ar
    15   13   14 ar
    16   14   15 ar
    17   14   17 1
    18   15   16 ar
    19   17   18 2
    20   17   19 1
    21   19   20 1
    22    1   21 1
    23    1   22 1
    24    1   23 1
    25   12   24 1
    26   13   25 1
    27   15   26 1
    28   16   27 1
    29   20   28 1
    30   20   29 1
    31   20   30 1
@<TRIPOS>MOLECULE
ZINC00530612
 35 37 0 0 0
SMALL
NO_CHARGES


@<TRIPOS>ATOM
      1 C          -1.848     8.170    13.854  C    
      2 O          -1.896     8.478    12.450  O    
      3 C          -0.654     8.604    11.890  C    
      4 C           0.023     7.474    11.394  C    
      5 C           1.288     7.613    10.798  C    
      6 C           1.879     8.887    10.663  C    
      7 C           1.200    10.027    11.154  C    
      8 C          -0.068     9.876    11.758  C    
      9 N           1.741    11.274    11.037  N    
     10 C           1.478    12.207    10.092  C    
     11 N           2.199    13.301    10.403  N    
     12 N           2.876    13.081    11.485  N    
     13 C           2.618    11.833    11.898  C    
     14 S           3.312    11.174    13.355  S    
     15 C           0.628    12.129     8.955  C    
     16 C           0.435    13.215     8.069  C    
     17 N          -0.379    13.063     6.990  N    
     18 C          -1.024    11.900     6.717  C    
     19 C          -0.843    10.812     7.588  C    
     20 N          -0.029    10.972     8.663  N    
     21 O           3.136     8.998    10.132  O    
     22 C           3.165     9.021     8.693  C    
     23 H          -1.343     7.215    14.037  H    
     24 H          -2.874     8.087    14.216  H    
     25 H          -1.344     8.964    14.418  H    
     26 H          -0.401     6.549    11.474  H    
     27 H           1.782     6.784    10.462  H    
     28 H          -0.568    10.697    12.106  H    
     29 H           3.588     9.967    12.790  H    
     30 H           0.895    14.114     8.220  H    
     31 H          -1.627    11.822     5.896  H    
     32 H          -1.309     9.919     7.419  H    
     33 H           2.720     8.118     8.269  H    
     34 H           4.209     9.064     8.381  H    
     35 H           2.654     9.902     8.299  H    
@<TRIPOS>BOND
     1    1    2 1
     2    2    3 1
     3    3    8 ar
     4    3    4 ar
     5    4    5 ar
     6    5    6 ar
     7    6    7 ar
     8    6   21 1
     9    7    8 ar
    10    7    9 1
    11    9   13 1
    12    9   10 1
    13   10   11 2
    14   10   15 1
    15   11   12 1
    16   12   13 2
    17   13   14 1
    18   15   20 ar
    19   15   16 ar
    20   16   17 ar
    21   17   18 ar
    22   18   19 ar
    23   19   20 ar
    24   21   22 1
    25    1   23 1
    26    1   24 1
    27    1   25 1
    28    4   26 1
    29    5   27 1
    30    8   28 1
    31   14   29 1
    32   16   30 1
    33   18   31 1
    34   19   32 1
    35   22   33 1
    36   22   34 1
    37   22   35 1
@<TRIPOS>MOLECULE
ZINC00613662
 41 43 0 0 0
SMALL
NO_CHARGES


@<TRIPOS>ATOM
      1 C           1.500     5.422    -2.040  C    
      2 C           1.823     4.569    -0.786  C    
      3 C           1.815     3.134    -1.061  C    
      4 O           0.868     2.485    -0.635  O    
      5 N           2.787     2.504    -1.731  N    
      6 C           2.848     1.095    -2.014  C    
      7 C           4.147     1.043    -2.629  C    
      8 C           4.685     2.263    -2.690  C    
      9 N           3.841     3.072    -2.159  N    
     10 C           5.917     2.647    -3.227  C    
     11 C           6.994     1.735    -3.330  C    
     12 C           8.234     2.142    -3.843  C    
     13 C           8.413     3.460    -4.293  C    
     14 C           7.357     4.403    -4.231  C    
     15 C           6.124     3.977    -3.676  C    
     16 N           7.526     5.675    -4.703  N    
     17 O           6.631     6.481    -4.737  O    
     18 O           8.655     6.091    -5.203  O    
     19 C           1.752     0.617    -2.911  C    
     20 C           1.485     1.261    -4.145  C    
     21 C           0.440     0.821    -4.977  C    
     22 C          -0.360    -0.270    -4.588  C    
     23 C          -0.107    -0.920    -3.365  C    
     24 C           0.937    -0.480    -2.535  C    
     25 F          -1.328    -0.683    -5.362  F    
     26 H           2.253     5.277    -2.817  H    
     27 H           1.483     6.480    -1.767  H    
     28 H           0.518     5.152    -2.440  H    
     29 H           2.801     4.862    -0.390  H    
     30 H           1.082     4.811    -0.016  H    
     31 H           2.881     0.527    -1.082  H    
     32 H           4.560     0.213    -2.985  H    
     33 H           4.019     3.981    -2.038  H    
     34 H           6.903     0.772    -3.001  H    
     35 H           9.005     1.476    -3.899  H    
     36 H           9.325     3.723    -4.671  H    
     37 H           5.354     4.645    -3.621  H    
     38 H           2.049     2.063    -4.446  H    
     39 H           0.261     1.302    -5.863  H    
     40 H          -0.685    -1.712    -3.073  H    
     41 H           1.099    -0.962    -1.648  H    
@<TRIPOS>BOND
     1    1    2 1
     2    2    3 1
     3    3    4 2
     4    3    5 1
     5    5    6 1
     6    5    9 1
     7    6    7 1
     8    6   19 1
     9    7    8 2
    10    8   10 1
    11    8    9 1
    12   10   15 ar
    13   10   11 ar
    14   11   12 ar
    15   12   13 ar
    16   13   14 ar
    17   14   15 ar
    18   14   16 1
    19   16   17 2
    20   16   18 1
    21   19   24 ar
    22   19   20 ar
    23   20   21 ar
    24   21   22 ar
    25   22   23 ar
    26   22   25 1
    27   23   24 ar
    28    1   26 1
    29    1   27 1
    30    1   28 1
    31    2   29 1
    32    2   30 1
    33    6   31 1
    34    7   32 1
    35    9   33 1
    36   11   34 1
    37   12   35 1
    38   13   36 1
    39   15   37 1
    40   20   38 1
    41   21   39 1
    42   23   40 1
    43   24   41 1
@<TRIPOS>MOLECULE
ZINC00619317
 34 34 0 0 0
SMALL
NO_CHARGES


@<TRIPOS>ATOM
      1 C           5.699    -9.633    -2.142  C    
      2 C           4.569    -8.738    -1.949  C    
      3 O           3.469    -9.130    -2.314  O    
      4 C           4.684    -7.396    -1.408  C    
      5 S           3.734    -7.266     0.132  S    
      6 C           3.950    -5.600     0.441  C    
      7 N           5.146    -5.048     0.422  N    
      8 C           5.344    -3.724     0.683  C    
      9 N           4.233    -2.989     0.978  N    
     10 C           2.984    -3.536     1.015  C    
     11 N           2.894    -4.869     0.735  N    
     12 N           1.878    -2.785     1.323  N    
     13 C           2.019    -1.375     1.616  C    
     14 C           0.572    -3.403     1.359  C    
     15 N           6.596    -3.165     0.662  N    
     16 C           7.747    -3.985     0.351  C    
     17 C           6.763    -1.759     0.957  C    
     18 H           5.551   -10.547    -1.558  H    
     19 H           6.644    -9.184    -1.829  H    
     20 H           5.781    -9.899    -3.198  H    
     21 H           5.724    -7.136    -1.201  H    
     22 H           4.300    -6.681    -2.139  H    
     23 H           2.682    -1.241     2.473  H    
     24 H           1.075    -0.883     1.854  H    
     25 H           2.448    -0.859     0.754  H    
     26 H           0.331    -3.820     0.379  H    
     27 H          -0.228    -2.707     1.624  H    
     28 H           0.563    -4.208     2.094  H    
     29 H           7.833    -4.797     1.077  H    
     30 H           8.689    -3.433     0.369  H    
     31 H           7.642    -4.417    -0.647  H    
     32 H           6.198    -1.157     0.240  H    
     33 H           7.802    -1.427     0.915  H    
     34 H           6.394    -1.545     1.963  H    
@<TRIPOS>BOND
     1    1    2 1
     2    2    3 2
     3    2    4 1
     4    4    5 1
     5    5    6 1
     6    6   11 ar
     7    6    7 ar
     8    7    8 ar
     9    8    9 ar
    10    8   15 1
    11    9   10 ar
    12   10   11 ar
    13   10   12 1
    14   12   13 1
    15   12   14 1
    16   15   16 1
    17   15   17 1
    18    1   18 1
    19    1   19 1
    20    1   20 1
    21    4   21 1
    22    4   22 1
    23   13   23 1
    24   13   24 1
    25   13   25 1
    26   14   26 1
    27   14   27 1
    28   14   28 1
    29   16   29 1
    30   16   30 1
    31   16   31 1
    32   17   32 1
    33   17   33 1
    34   17   34 1
@<TRIPOS>MOLECULE
ZINC00622127
 46 49 0 0 0
SMALL
NO_CHARGES


@<TRIPOS>ATOM
      1 C           3.663    -1.304    -3.144  C    
      2 C           4.141    -1.335    -1.736  C    
      3 C           3.395    -0.761    -0.679  C    
      4 C           3.878    -0.845     0.640  C    
      5 C           5.122    -1.439     0.912  C    
      6 C           5.923    -1.983    -0.122  C    
      7 C           5.390    -1.941    -1.442  C    
      8 O           6.104    -2.501    -2.469  O    
      9 C           7.321    -3.082    -2.324  C    
     10 O           7.904    -3.596    -3.431  O    
     11 C           7.934    -3.112    -1.046  C    
     12 C           7.232    -2.565     0.072  C    
     13 C           7.887    -2.598     1.333  C    
     14 C           9.173    -3.146     1.482  C    
     15 C           9.843    -3.680     0.370  C    
     16 C           9.228    -3.661    -0.889  C    
     17 O           2.182    -0.167    -0.907  O    
     18 C           2.256     1.275    -1.020  C    
     19 C           0.945     1.777    -1.421  C    
     20 O           0.569     1.354    -2.510  O    
     21 C           0.115     2.679    -0.717  C    
     22 C           0.511     3.342     0.474  C    
     23 C          -0.337     4.253     1.131  C    
     24 C          -1.626     4.544     0.629  C    
     25 C          -2.044     3.879    -0.540  C    
     26 C          -1.191     2.973    -1.199  C    
     27 F          -3.235     4.102    -1.035  F    
     28 O          -2.518     5.450     1.165  O    
     29 C          -2.237     6.110     2.406  C    
     30 H           4.376    -0.755    -3.761  H    
     31 H           2.691    -0.823    -3.254  H    
     32 H           3.574    -2.319    -3.526  H    
     33 H           3.325    -0.455     1.410  H    
     34 H           5.422    -1.459     1.887  H    
     35 H           7.452    -2.212     2.172  H    
     36 H           9.622    -3.156     2.404  H    
     37 H          10.782    -4.074     0.479  H    
     38 H           9.738    -4.044    -1.689  H    
     39 H           2.598     1.687    -0.064  H    
     40 H           2.986     1.573    -1.788  H    
     41 H           1.428     3.186     0.892  H    
     42 H           0.002     4.712     1.978  H    
     43 H          -1.545     2.526    -2.052  H    
     44 H          -2.138     5.387     3.218  H    
     45 H          -3.071     6.773     2.636  H    
     46 H          -1.332     6.716     2.332  H    
@<TRIPOS>BOND
     1    1    2 1
     2    2    7 ar
     3    2    3 ar
     4    3    4 ar
     5    3   17 1
     6    4    5 ar
     7    5    6 ar
     8    6   12 1
     9    6    7 ar
    10    7    8 1
    11    8    9 1
    12    9   10 2
    13    9   11 1
    14   11   16 ar
    15   11   12 ar
    16   12   13 ar
    17   13   14 ar
    18   14   15 ar
    19   15   16 ar
    20   17   18 1
    21   18   19 1
    22   19   20 2
    23   19   21 1
    24   21   26 ar
    25   21   22 ar
    26   22   23 ar
    27   23   24 ar
    28   24   25 ar
    29   24   28 1
    30   25   26 ar
    31   25   27 1
    32   28   29 1
    33    1   30 1
    34    1   31 1
    35    1   32 1
    36    4   33 1
    37    5   34 1
    38   13   35 1
    39   14   36 1
    40   15   37 1
    41   16   38 1
    42   18   39 1
    43   18   40 1
    44   22   41 1
    45   23   42 1
    46   26   43 1
    47   29   44 1
    48   29   45 1
    49   29   46 1
@<TRIPOS>MOLECULE
ZINC00625242
 35 37 0 0 0
SMALL
NO_CHARGES


@<TRIPOS>ATOM
      1 C           5.791   -10.948    -1.998  C    
      2 C           4.955   -11.492    -1.006  C    
      3 C           4.599   -10.727     0.122  C    
      4 C           5.064    -9.391     0.278  C    
      5 C           5.906    -8.859    -0.739  C    
      6 C           6.267    -9.631    -1.859  C    
      7 C           4.715    -8.633     1.401  C    
      8 O           4.440    -9.207     2.447  O    
      9 N           4.632    -7.313     1.308  N    
     10 C           4.335    -6.415     2.274  C    
     11 N           4.193    -5.100     2.002  N    
     12 C           3.895    -4.304     3.061  C    
     13 C           3.792    -4.963     4.289  C    
     14 S           4.085    -6.622     3.964  S    
     15 C           3.506    -4.365     5.603  C    
     16 C           4.743    -4.272     6.422  C    
     17 C           5.212    -5.389     7.158  C    
     18 C           6.383    -5.295     7.937  C    
     19 C           7.104    -4.087     7.985  C    
     20 C           6.655    -2.975     7.250  C    
     21 C           5.486    -3.067     6.471  C    
     22 Br          8.644    -3.960     9.024  Br   
     23 H           6.053   -11.505    -2.815  H    
     24 H           4.605   -12.448    -1.104  H    
     25 H           3.973   -11.148     0.818  H    
     26 H           6.281    -7.907    -0.662  H    
     27 H           6.879    -9.234    -2.575  H    
     28 H           4.774    -6.943     0.423  H    
     29 H           3.764    -3.294     2.960  H    
     30 H           3.067    -3.374     5.459  H    
     31 H           2.753    -4.968     6.114  H    
     32 H           4.696    -6.274     7.141  H    
     33 H           6.707    -6.106     8.471  H    
     34 H           7.177    -2.096     7.283  H    
     35 H           5.176    -2.245     5.944  H    
@<TRIPOS>BOND
     1    1    6 ar
     2    1    2 ar
     3    2    3 ar
     4    3    4 ar
     5    4    5 ar
     6    4    7 1
     7    5    6 ar
     8    7    8 2
     9    7    9 1
    10    9   10 1
    11   10   14 1
    12   10   11 2
    13   11   12 1
    14   12   13 2
    15   13   14 1
    16   13   15 1
    17   15   16 1
    18   16   21 ar
    19   16   17 ar
    20   17   18 ar
    21   18   19 ar
    22   19   20 ar
    23   19   22 1
    24   20   21 ar
    25    1   23 1
    26    2   24 1
    27    3   25 1
    28    5   26 1
    29    6   27 1
    30    9   28 1
    31   12   29 1
    32   15   30 1
    33   15   31 1
    34   17   32 1
    35   18   33 1
    36   20   34 1
    37   21   35 1
@<TRIPOS>MOLECULE
ZINC00630001
 41 43 0 0 0
SMALL
NO_CHARGES


@<TRIPOS>ATOM
      1 C           1.349    11.630     8.551  C    
      2 C           1.576    10.426     7.596  C    
      3 C           3.004    10.465     6.984  C    
      4 C           1.308     9.074     8.321  C    
      5 O           1.329     7.979     7.396  O    
      6 C           2.181     6.917     7.339  C    
      7 O           3.196     6.836     8.233  O    
      8 C           1.991     5.900     6.364  C    
      9 C           0.828     5.892     5.545  C    
     10 C           0.610     4.876     4.592  C    
     11 C           1.577     3.868     4.453  C    
     12 C           2.727     3.867     5.228  C    
     13 C           2.952     4.869     6.192  C    
     14 C           3.446     2.774     4.854  C    
     15 O           4.547     2.504     5.315  O    
     16 N           2.792     2.125     3.894  N    
     17 C           1.655     2.772     3.645  C    
     18 O           0.765     2.436     2.876  O    
     19 C           3.213     0.967     3.268  C    
     20 C           3.802    -0.090     4.006  C    
     21 C           4.237    -1.266     3.372  C    
     22 C           4.083    -1.413     1.982  C    
     23 C           3.500    -0.377     1.226  C    
     24 C           3.068     0.802     1.866  C    
     25 Cl          3.313    -0.553    -0.450  Cl   
     26 H           2.031    11.579     9.404  H    
     27 H           0.322    11.630     8.923  H    
     28 H           1.517    12.574     8.024  H    
     29 H           0.856    10.511     6.772  H    
     30 H           3.174    11.412     6.467  H    
     31 H           3.127     9.659     6.258  H    
     32 H           3.760    10.351     7.766  H    
     33 H           2.034     8.933     9.128  H    
     34 H           0.311     9.090     8.771  H    
     35 H           0.111     6.613     5.649  H    
     36 H          -0.234     4.872     4.020  H    
     37 H           3.801     4.835     6.756  H    
     38 H           3.911    -0.016     5.021  H    
     39 H           4.652    -2.020     3.922  H    
     40 H           4.403    -2.269     1.524  H    
     41 H           2.665     1.551     1.299  H    
@<TRIPOS>BOND
     1    1    2 1
     2    2    3 1
     3    2    4 1
     4    4    5 1
     5    5    6 1
     6    6    7 2
     7    6    8 1
     8    8   13 ar
     9    8    9 ar
    10    9   10 ar
    11   10   11 ar
    12   11   17 1
    13   11   12 ar
    14   12   13 ar
    15   12   14 1
    16   14   15 2
    17   14   16 1
    18   16   17 1
    19   16   19 1
    20   17   18 2
    21   19   24 ar
    22   19   20 ar
    23   20   21 ar
    24   21   22 ar
    25   22   23 ar
    26   23   24 ar
    27   23   25 1
    28    1   26 1
    29    1   27 1
    30    1   28 1
    31    2   29 1
    32    3   30 1
    33    3   31 1
    34    3   32 1
    35    4   33 1
    36    4   34 1
    37    9   35 1
    38   10   36 1
    39   13   37 1
    40   20   38 1
    41   21   39 1
    42   22   40 1
    43   24   41 1
@<TRIPOS>MOLECULE
ZINC00631205
 50 52 0 0 0
SMALL
NO_CHARGES


@<TRIPOS>ATOM
      1 C           3.843    -4.822    -4.625  C    
      2 C           4.373    -5.939    -5.297  C    
      3 C           4.605    -7.156    -4.614  C    
      4 C           4.285    -7.217    -3.234  C    
      5 C           3.743    -6.107    -2.552  C    
      6 C           3.532    -4.907    -3.259  C    
      7 S           3.381    -6.196    -0.850  S    
      8 O           2.914    -7.673    -0.482  O    
      9 O           2.257    -5.128    -0.492  O    
     10 N           4.812    -5.869    -0.021  N    
     11 C           5.020    -5.999     1.322  C    
     12 C           6.356    -6.102     1.771  C    
     13 C           6.658    -6.211     3.141  C    
     14 C           5.624    -6.224     4.105  C    
     15 C           4.284    -6.125     3.664  C    
     16 C           3.990    -6.020     2.290  C    
     17 C           5.922    -6.341     5.453  C    
     18 O           6.340    -5.297     5.944  O    
     19 N           5.769    -7.465     6.195  N    
     20 C           5.385    -8.737     5.592  C    
     21 C           3.958    -9.189     5.998  C    
     22 C           3.892    -9.927     7.358  C    
     23 C           4.327    -9.084     8.582  C    
     24 C           5.804    -8.611     8.545  C    
     25 C           6.051    -7.385     7.627  C    
     26 C           5.167    -8.358    -5.288  C    
     27 F           6.345    -8.728    -4.685  F    
     28 F           4.283    -9.404    -5.193  F    
     29 F           5.441    -8.189    -6.625  F    
     30 H           3.686    -3.948    -5.130  H    
     31 H           4.586    -5.847    -6.290  H    
     32 H           4.462    -8.079    -2.716  H    
     33 H           3.164    -4.082    -2.783  H    
     34 H           5.600    -5.734    -0.572  H    
     35 H           7.129    -6.104     1.096  H    
     36 H           7.636    -6.297     3.435  H    
     37 H           3.516    -6.120     4.340  H    
     38 H           3.010    -5.940     2.008  H    
     39 H           5.407    -8.703     4.498  H    
     40 H           6.122    -9.500     5.855  H    
     41 H           3.290    -8.324     6.009  H    
     42 H           3.584    -9.878     5.233  H    
     43 H           2.859   -10.248     7.513  H    
     44 H           4.508   -10.829     7.304  H    
     45 H           3.661    -8.222     8.688  H    
     46 H           4.193    -9.707     9.470  H    
     47 H           6.086    -8.321     9.561  H    
     48 H           6.462    -9.434     8.259  H    
     49 H           7.104    -7.110     7.749  H    
     50 H           5.457    -6.566     8.049  H    
@<TRIPOS>BOND
     1    1    6 ar
     2    1    2 ar
     3    2    3 ar
     4    3    4 ar
     5    3   26 1
     6    4    5 ar
     7    5    6 ar
     8    5    7 1
     9    7    8 2
    10    7    9 2
    11    7   10 1
    12   10   11 1
    13   11   16 ar
    14   11   12 ar
    15   12   13 ar
    16   13   14 ar
    17   14   15 ar
    18   14   17 1
    19   15   16 ar
    20   17   18 2
    21   17   19 1
    22   19   25 1
    23   19   20 1
    24   20   21 1
    25   21   22 1
    26   22   23 1
    27   23   24 1
    28   24   25 1
    29   26   27 1
    30   26   28 1
    31   26   29 1
    32    1   30 1
    33    2   31 1
    34    4   32 1
    35    6   33 1
    36   10   34 1
    37   12   35 1
    38   13   36 1
    39   15   37 1
    40   16   38 1
    41   20   39 1
    42   20   40 1
    43   21   41 1
    44   21   42 1
    45   22   43 1
    46   22   44 1
    47   23   45 1
    48   23   46 1
    49   24   47 1
    50   24   48 1
    51   25   49 1
    52   25   50 1
@<TRIPOS>MOLECULE
ZINC00644247
 54 58 0 0 0
SMALL
NO_CHARGES


@<TRIPOS>ATOM
      1 C           2.394     2.360     7.094  C    
      2 C           2.687     2.638     5.746  C    
      3 C           1.854     3.501     5.008  C    
      4 C           0.728     4.080     5.623  C    
      5 C           0.417     3.816     6.982  C    
      6 C           1.271     2.944     7.710  C    
      7 C          -0.725     4.436     7.510  C    
      8 O          -0.997     4.231     8.688  O    
      9 N          -1.511     5.230     6.748  N    
     10 C          -1.204     5.459     5.419  C    
     11 N          -0.085     4.892     4.909  N    
     12 C          -2.009     6.321     4.499  C    
     13 C          -1.914     7.624     2.360  C    
     14 C          -1.316     7.663     0.926  C    
     15 N          -1.658     6.442     0.207  N    
     16 C          -1.221     5.231     0.877  C    
     17 C          -1.859     5.154     2.284  C    
     18 C          -2.265     6.462    -0.998  C    
     19 O          -2.355     7.520    -1.610  O    
     20 C          -2.846     5.373    -1.639  C    
     21 C          -2.987     5.183    -3.014  C    
     22 C          -3.649     3.984    -3.207  C    
     23 C          -3.916     3.468    -1.951  C    
     24 O          -3.432     4.317    -1.018  O    
     25 C          -2.628     5.820     7.304  C    
     26 C          -3.910     5.261     7.096  C    
     27 C          -5.047     5.851     7.682  C    
     28 C          -4.908     6.996     8.490  C    
     29 C          -3.634     7.553     8.713  C    
     30 C          -2.499     6.965     8.121  C    
     31 F          -5.959     7.538     9.035  F    
     32 N          -1.518     6.377     3.082  N    
     33 H           3.000     1.731     7.627  H    
     34 H           3.504     2.214     5.300  H    
     35 H           2.069     3.698     4.026  H    
     36 H           1.078     2.728     8.692  H    
     37 H          -3.048     5.975     4.500  H    
     38 H          -2.001     7.324     4.936  H    
     39 H          -1.545     8.500     2.905  H    
     40 H          -3.005     7.693     2.299  H    
     41 H          -1.678     8.574     0.442  H    
     42 H          -0.227     7.751     0.994  H    
     43 H          -1.438     4.311     0.338  H    
     44 H          -0.132     5.255     0.985  H    
     45 H          -2.944     5.057     2.179  H    
     46 H          -1.491     4.252     2.778  H    
     47 H          -2.661     5.808    -3.752  H    
     48 H          -3.899     3.564    -4.100  H    
     49 H          -4.407     2.593    -1.754  H    
     50 H          -4.016     4.429     6.515  H    
     51 H          -5.970     5.441     7.521  H    
     52 H          -3.529     8.381     9.305  H    
     53 H          -1.576     7.377     8.288  H    
     54 H          -0.496     6.407     3.139  H    
@<TRIPOS>BOND
     1    1    6 ar
     2    1    2 ar
     3    2    3 ar
     4    3    4 ar
     5    4   11 1
     6    4    5 ar
     7    5    6 ar
     8    5    7 1
     9    7    8 2
    10    7    9 1
    11    9   10 1
    12    9   25 1
    13   10   11 2
    14   10   12 1
    15   12   32 1
    16   13   14 1
    17   13   32 1
    18   14   15 1
    19   15   16 1
    20   15   18 1
    21   16   17 1
    22   17   32 1
    23   18   19 2
    24   18   20 1
    25   20   24 1
    26   20   21 2
    27   21   22 1
    28   22   23 2
    29   23   24 1
    30   25   30 ar
    31   25   26 ar
    32   26   27 ar
    33   27   28 ar
    34   28   29 ar
    35   28   31 1
    36   29   30 ar
    37    1   33 1
    38    2   34 1
    39    3   35 1
    40    6   36 1
    41   12   37 1
    42   12   38 1
    43   13   39 1
    44   13   40 1
    45   14   41 1
    46   14   42 1
    47   16   43 1
    48   16   44 1
    49   17   45 1
    50   17   46 1
    51   21   47 1
    52   22   48 1
    53   23   49 1
    54   26   50 1
    55   27   51 1
    56   29   52 1
    57   30   53 1
    58   32   54 1
@<TRIPOS>MOLECULE
ZINC00650233
 50 53 0 0 0
SMALL
NO_CHARGES


@<TRIPOS>ATOM
      1 C           4.306     7.041     4.130  C    
      2 C           3.432     6.039     3.673  C    
      3 C           2.055     6.130     3.940  C    
      4 C           1.514     7.225     4.663  C    
      5 C           2.416     8.226     5.118  C    
      6 C           3.798     8.131     4.859  C    
      7 C           0.024     7.271     4.890  C    
      8 C          -0.430     6.222     5.965  C    
      9 C          -0.326     6.722     7.335  C    
     10 O          -0.648     5.960     8.239  O    
     11 C          -0.049     8.039     7.610  C    
     12 C           0.732     8.362     8.666  C    
     13 N           1.154     9.611     8.894  N    
     14 C           1.935    10.097     9.897  C    
     15 C           2.503     9.312    10.934  C    
     16 C           3.313     9.901    11.923  C    
     17 C           3.584    11.280    11.882  C    
     18 C           3.034    12.072    10.859  C    
     19 C           2.194    11.493     9.880  C    
     20 O           1.658    12.272     8.874  O    
     21 C           0.769    13.236     9.287  C    
     22 C          -0.413    12.938    10.011  C    
     23 C          -1.288    13.971    10.395  C    
     24 C          -1.003    15.308    10.046  C    
     25 C           0.156    15.607     9.302  C    
     26 C           1.034    14.576     8.921  C    
     27 C          -0.496     8.966     6.695  C    
     28 O          -1.010    10.009     7.077  O    
     29 C          -0.593     8.660     5.269  C    
     30 H           5.309     6.976     3.931  H    
     31 H           3.797     5.244     3.139  H    
     32 H           1.439     5.388     3.594  H    
     33 H           2.085     9.034     5.649  H    
     34 H           4.433     8.858     5.192  H    
     35 H          -0.435     6.993     3.935  H    
     36 H          -1.479     5.959     5.787  H    
     37 H           0.157     5.302     5.875  H    
     38 H           1.028     7.640     9.281  H    
     39 H           0.863    10.271     8.243  H    
     40 H           2.332     8.306    10.987  H    
     41 H           3.710     9.326    12.671  H    
     42 H           4.179    11.709    12.594  H    
     43 H           3.240    13.075    10.829  H    
     44 H          -0.633    11.969    10.257  H    
     45 H          -2.136    13.752    10.926  H    
     46 H          -1.639    16.057    10.327  H    
     47 H           0.361    16.573     9.044  H    
     48 H           1.871    14.797     8.370  H    
     49 H          -0.110     9.452     4.688  H    
     50 H          -1.657     8.659     5.003  H    
@<TRIPOS>BOND
     1    1    6 ar
     2    1    2 ar
     3    2    3 ar
     4    3    4 ar
     5    4    5 ar
     6    4    7 1
     7    5    6 ar
     8    7   29 1
     9    7    8 1
    10    8    9 1
    11    9   10 2
    12    9   11 1
    13   11   12 2
    14   11   27 1
    15   12   13 1
    16   13   14 1
    17   14   19 ar
    18   14   15 ar
    19   15   16 ar
    20   16   17 ar
    21   17   18 ar
    22   18   19 ar
    23   19   20 1
    24   20   21 1
    25   21   26 ar
    26   21   22 ar
    27   22   23 ar
    28   23   24 ar
    29   24   25 ar
    30   25   26 ar
    31   27   28 2
    32   27   29 1
    33    1   30 1
    34    2   31 1
    35    3   32 1
    36    5   33 1
    37    6   34 1
    38    7   35 1
    39    8   36 1
    40    8   37 1
    41   12   38 1
    42   13   39 1
    43   15   40 1
    44   16   41 1
    45   17   42 1
    46   18   43 1
    47   22   44 1
    48   23   45 1
    49   24   46 1
    50   25   47 1
    51   26   48 1
    52   29   49 1
    53   29   50 1
@<TRIPOS>MOLECULE
ZINC00651790
 57 60 0 0 0
SMALL
NO_CHARGES


@<TRIPOS>ATOM
      1 C           6.556   -12.672    -2.848  C    
      2 C           6.984   -12.141    -1.460  C    
      3 C           6.444   -10.783    -1.186  C    
      4 C           7.219    -9.627    -1.435  C    
      5 C           6.679    -8.345    -1.229  C    
      6 C           5.352    -8.178    -0.766  C    
      7 C           4.590    -9.340    -0.495  C    
      8 C           5.125   -10.623    -0.705  C    
      9 C           4.765    -6.806    -0.597  C    
     10 C           4.460    -6.564     0.834  C    
     11 C           3.168    -6.366     1.195  C    
     12 C           2.743    -6.200     2.584  C    
     13 C           3.912    -5.940     3.591  C    
     14 C           5.159    -6.779     3.185  C    
     15 C           5.460    -6.550     1.780  C    
     16 O           6.604    -6.238     1.471  O    
     17 C           3.521    -6.148     5.022  C    
     18 C           3.136    -7.424     5.505  C    
     19 C           2.787    -7.616     6.855  C    
     20 C           2.821    -6.532     7.748  C    
     21 C           3.198    -5.259     7.291  C    
     22 C           3.545    -5.071     5.940  C    
     23 N           2.222    -6.388     0.292  N    
     24 C           2.384    -6.381    -1.005  C    
     25 C           3.616    -6.623    -1.529  C    
     26 C           3.855    -6.738    -2.900  C    
     27 O           5.014    -6.278    -3.436  O    
     28 O           2.991    -7.448    -3.688  O    
     29 C           3.121    -7.695    -5.087  C    
     30 C           1.179    -6.041    -1.755  C    
     31 H           5.467   -12.718    -2.921  H    
     32 H           6.957   -13.673    -3.006  H    
     33 H           6.936   -12.017    -3.637  H    
     34 H           6.643   -12.841    -0.691  H    
     35 H           8.079   -12.135    -1.415  H    
     36 H           8.174    -9.713    -1.791  H    
     37 H           7.260    -7.529    -1.433  H    
     38 H           3.630    -9.258    -0.158  H    
     39 H           4.542   -11.444    -0.519  H    
     40 H           5.495    -6.037    -0.882  H    
     41 H           2.046    -5.359     2.646  H    
     42 H           2.196    -7.102     2.861  H    
     43 H           4.200    -4.890     3.463  H    
     44 H           6.007    -6.515     3.821  H    
     45 H           4.960    -7.843     3.319  H    
     46 H           3.108    -8.231     4.875  H    
     47 H           2.510    -8.544     7.183  H    
     48 H           2.567    -6.668     8.728  H    
     49 H           3.221    -4.468     7.940  H    
     50 H           3.816    -4.133     5.633  H    
     51 H           1.345    -6.316     0.609  H    
     52 H           3.129    -6.754    -5.641  H    
     53 H           2.271    -8.294    -5.417  H    
     54 H           4.042    -8.245    -5.285  H    
     55 H           0.455    -6.854    -1.677  H    
     56 H           1.358    -5.845    -2.814  H    
     57 H           0.728    -5.134    -1.349  H    
@<TRIPOS>BOND
     1    1    2 1
     2    2    3 1
     3    3    8 ar
     4    3    4 ar
     5    4    5 ar
     6    5    6 ar
     7    6    7 ar
     8    6    9 1
     9    7    8 ar
    10    9   25 1
    11    9   10 1
    12   10   15 1
    13   10   11 2
    14   11   12 1
    15   11   23 1
    16   12   13 1
    17   13   14 1
    18   13   17 1
    19   14   15 1
    20   15   16 2
    21   17   22 ar
    22   17   18 ar
    23   18   19 ar
    24   19   20 ar
    25   20   21 ar
    26   21   22 ar
    27   23   24 1
    28   24   25 2
    29   24   30 1
    30   25   26 1
    31   26   27 2
    32   26   28 1
    33   28   29 1
    34    1   31 1
    35    1   32 1
    36    1   33 1
    37    2   34 1
    38    2   35 1
    39    4   36 1
    40    5   37 1
    41    7   38 1
    42    8   39 1
    43    9   40 1
    44   12   41 1
    45   12   42 1
    46   13   43 1
    47   14   44 1
    48   14   45 1
    49   18   46 1
    50   19   47 1
    51   20   48 1
    52   21   49 1
    53   22   50 1
    54   23   51 1
    55   29   52 1
    56   29   53 1
    57   29   54 1
    58   30   55 1
    59   30   56 1
    60   30   57 1
@<TRIPOS>MOLECULE
ZINC00652003
 45 48 0 0 0
SMALL
NO_CHARGES


@<TRIPOS>ATOM
      1 C           0.264     2.824     1.852  C    
      2 C           1.424     3.377     2.597  C    
      3 C           1.535     4.777     2.788  C    
      4 C           2.623     5.326     3.487  C    
      5 C           3.626     4.486     3.995  C    
      6 C           3.529     3.095     3.815  C    
      7 C           2.420     2.523     3.148  C    
      8 N           2.301     1.186     2.952  N    
      9 C           2.787     0.035     3.378  C    
     10 C           3.524    -0.181     4.529  C    
     11 C           4.386    -1.224     4.541  C    
     12 C           4.471    -2.107     3.465  C    
     13 C           5.447    -3.123     3.367  C    
     14 C           5.467    -3.973     2.245  C    
     15 C           4.509    -3.822     1.225  C    
     16 C           3.524    -2.821     1.324  C    
     17 C           3.502    -1.960     2.438  C    
     18 O           2.508    -1.003     2.554  O    
     19 C           3.228     0.472     5.686  C    
     20 O           2.078     0.392     6.107  O    
     21 N           4.191     1.117     6.339  N    
     22 C           4.159     1.895     7.466  C    
     23 C           2.992     2.387     8.104  C    
     24 C           3.083     3.211     9.239  C    
     25 C           4.343     3.568     9.755  C    
     26 C           5.511     3.098     9.127  C    
     27 C           5.416     2.272     7.994  C    
     28 F           4.427     4.339    10.802  F    
     29 H           0.618     2.263     0.985  H    
     30 H          -0.416     3.603     1.499  H    
     31 H          -0.299     2.153     2.503  H    
     32 H           0.821     5.410     2.423  H    
     33 H           2.694     6.338     3.616  H    
     34 H           4.437     4.886     4.473  H    
     35 H           4.304     2.514     4.129  H    
     36 H           4.929    -1.412     5.354  H    
     37 H           6.154    -3.240     4.099  H    
     38 H           6.179    -4.704     2.171  H    
     39 H           4.529    -4.439     0.411  H    
     40 H           2.827    -2.721     0.585  H    
     41 H           5.072     1.033     5.935  H    
     42 H           2.062     2.178     7.745  H    
     43 H           2.229     3.557     9.686  H    
     44 H           6.431     3.356     9.491  H    
     45 H           6.279     1.945     7.550  H    
@<TRIPOS>BOND
     1    1    2 1
     2    2    7 ar
     3    2    3 ar
     4    3    4 ar
     5    4    5 ar
     6    5    6 ar
     7    6    7 ar
     8    7    8 1
     9    8    9 2
    10    9   18 1
    11    9   10 1
    12   10   11 2
    13   10   19 1
    14   11   12 1
    15   12   17 ar
    16   12   13 ar
    17   13   14 ar
    18   14   15 ar
    19   15   16 ar
    20   16   17 ar
    21   17   18 1
    22   19   20 2
    23   19   21 1
    24   21   22 1
    25   22   27 ar
    26   22   23 ar
    27   23   24 ar
    28   24   25 ar
    29   25   26 ar
    30   25   28 1
    31   26   27 ar
    32    1   29 1
    33    1   30 1
    34    1   31 1
    35    3   32 1
    36    4   33 1
    37    5   34 1
    38    6   35 1
    39   11   36 1
    40   13   37 1
    41   14   38 1
    42   15   39 1
    43   16   40 1
    44   21   41 1
    45   23   42 1
    46   24   43 1
    47   26   44 1
    48   27   45 1
@<TRIPOS>MOLECULE
ZINC00653281
 46 48 0 0 0
SMALL
NO_CHARGES


@<TRIPOS>ATOM
      1 C           5.120   -11.167    -3.566  C    
      2 C           5.124   -10.043    -2.615  C    
      3 C           4.204    -9.736    -1.622  C    
      4 C           4.647    -8.553    -1.022  C    
      5 N           5.804    -8.221    -1.658  N    
      6 N           6.076    -9.098    -2.580  N    
      7 C           6.694    -7.130    -1.390  C    
      8 C           4.008    -7.892     0.021  C    
      9 O           3.324    -8.548     0.799  O    
     10 N           4.096    -6.574     0.117  N    
     11 C           3.567    -5.685     1.014  C    
     12 C           3.579    -4.332     0.615  C    
     13 C           3.076    -3.325     1.455  C    
     14 C           2.543    -3.659     2.710  C    
     15 C           2.524    -5.001     3.147  C    
     16 C           3.041    -6.001     2.292  C    
     17 C           1.955    -5.362     4.475  C    
     18 C           2.322    -6.613     6.588  C    
     19 C           3.398    -7.248     7.505  C    
     20 O           4.372    -6.267     7.910  O    
     21 C           5.027    -5.622     6.802  C    
     22 C           3.995    -4.943     5.867  C    
     23 Br          2.650   -10.704    -1.253  Br   
     24 N           2.966    -5.937     5.420  N    
     25 H           5.081   -10.780    -4.585  H    
     26 H           4.257   -11.817    -3.408  H    
     27 H           6.028   -11.757    -3.443  H    
     28 H           6.224    -6.184    -1.661  H    
     29 H           7.614    -7.222    -1.967  H    
     30 H           6.959    -7.111    -0.330  H    
     31 H           4.572    -6.153    -0.613  H    
     32 H           3.955    -4.067    -0.298  H    
     33 H           3.092    -2.351     1.149  H    
     34 H           2.183    -2.913     3.308  H    
     35 H           3.043    -6.963     2.624  H    
     36 H           1.476    -4.494     4.942  H    
     37 H           1.162    -6.094     4.287  H    
     38 H           1.654    -7.408     6.246  H    
     39 H           1.732    -5.898     7.172  H    
     40 H           2.919    -7.649     8.402  H    
     41 H           3.889    -8.078     6.988  H    
     42 H           5.708    -4.866     7.202  H    
     43 H           5.624    -6.346     6.240  H    
     44 H           3.522    -4.114     6.401  H    
     45 H           4.529    -4.534     5.008  H    
     46 H           3.466    -6.666     4.905  H    
@<TRIPOS>BOND
     1    1    2 1
     2    2    6 2
     3    2    3 1
     4    3    4 2
     5    3   23 1
     6    4    5 1
     7    4    8 1
     8    5    6 1
     9    5    7 1
    10    8    9 2
    11    8   10 1
    12   10   11 1
    13   11   16 ar
    14   11   12 ar
    15   12   13 ar
    16   13   14 ar
    17   14   15 ar
    18   15   16 ar
    19   15   17 1
    20   17   24 1
    21   18   19 1
    22   18   24 1
    23   19   20 1
    24   20   21 1
    25   21   22 1
    26   22   24 1
    27    1   25 1
    28    1   26 1
    29    1   27 1
    30    7   28 1
    31    7   29 1
    32    7   30 1
    33   10   31 1
    34   12   32 1
    35   13   33 1
    36   14   34 1
    37   16   35 1
    38   17   36 1
    39   17   37 1
    40   18   38 1
    41   18   39 1
    42   19   40 1
    43   19   41 1
    44   21   42 1
    45   21   43 1
    46   22   44 1
    47   22   45 1
    48   24   46 1
@<TRIPOS>MOLECULE
ZINC00672121
 45 48 0 0 0
SMALL
NO_CHARGES


@<TRIPOS>ATOM
      1 C           1.593     5.938    -7.529  C    
      2 C           1.203     5.136    -6.465  C    
      3 C           0.355     4.154    -6.984  C    
      4 O           0.223     4.344    -8.321  O    
      5 C           0.968     5.424    -8.666  C    
      6 C          -0.296     3.073    -6.230  C    
      7 N           0.197     1.817    -6.693  N    
      8 C          -0.215     0.627    -6.270  C    
      9 O          -1.118     0.531    -5.446  O    
     10 C           0.376    -0.534    -6.741  C    
     11 C           1.401    -0.657    -7.680  C    
     12 C           1.651    -2.014    -7.789  C    
     13 N           0.811    -2.651    -6.950  N    
     14 N           0.065    -1.782    -6.333  N    
     15 C           0.810    -4.076    -6.745  C    
     16 C           1.442    -4.799    -7.986  C    
     17 C           2.721    -4.068    -8.519  C    
     18 N           2.567    -2.641    -8.557  N    
     19 C           3.126    -4.561    -9.867  C    
     20 C           2.334    -4.291   -11.014  C    
     21 C           2.712    -4.760   -12.284  C    
     22 C           3.896    -5.507   -12.435  C    
     23 C           4.695    -5.784   -11.310  C    
     24 C           4.315    -5.313   -10.041  C    
     25 F           4.246    -5.945   -13.613  F    
     26 C           1.473    -4.440    -5.382  C    
     27 F           1.440    -5.795    -5.163  F    
     28 F           2.780    -4.024    -5.308  F    
     29 F           0.798    -3.856    -4.335  F    
     30 H           2.219     6.751    -7.483  H    
     31 H           1.495     5.240    -5.486  H    
     32 H           1.068     5.800    -9.611  H    
     33 H          -0.084     3.175    -5.161  H    
     34 H          -1.376     3.146    -6.387  H    
     35 H           0.911     1.835    -7.349  H    
     36 H           1.883     0.093    -8.181  H    
     37 H          -0.235    -4.399    -6.694  H    
     38 H           1.676    -5.842    -7.760  H    
     39 H           0.689    -4.805    -8.777  H    
     40 H           3.533    -4.256    -7.811  H    
     41 H           3.178    -2.113    -9.096  H    
     42 H           1.474    -3.744   -10.929  H    
     43 H           2.126    -4.555   -13.096  H    
     44 H           5.555    -6.329   -11.412  H    
     45 H           4.911    -5.530    -9.241  H    
@<TRIPOS>BOND
     1    1    5 2
     2    1    2 1
     3    2    3 2
     4    3    4 1
     5    3    6 1
     6    4    5 1
     7    6    7 1
     8    7    8 1
     9    8    9 2
    10    8   10 1
    11   10   14 2
    12   10   11 1
    13   11   12 2
    14   12   18 1
    15   12   13 1
    16   13   14 1
    17   13   15 1
    18   15   16 1
    19   15   26 1
    20   16   17 1
    21   17   18 1
    22   17   19 1
    23   19   24 ar
    24   19   20 ar
    25   20   21 ar
    26   21   22 ar
    27   22   23 ar
    28   22   25 1
    29   23   24 ar
    30   26   27 1
    31   26   28 1
    32   26   29 1
    33    1   30 1
    34    2   31 1
    35    5   32 1
    36    6   33 1
    37    6   34 1
    38    7   35 1
    39   11   36 1
    40   15   37 1
    41   16   38 1
    42   16   39 1
    43   17   40 1
    44   18   41 1
    45   20   42 1
    46   21   43 1
    47   23   44 1
    48   24   45 1
@<TRIPOS>MOLECULE
ZINC00713280
 31 32 0 0 0
SMALL
NO_CHARGES


@<TRIPOS>ATOM
      1 C           4.387    -9.885     1.218  C    
      2 O           5.432    -9.126     0.587  O    
      3 C           5.000    -7.930     0.081  C    
      4 C           5.046    -6.775     0.890  C    
      5 C           4.627    -5.513     0.398  C    
      6 C           4.177    -5.439    -0.945  C    
      7 C           4.150    -6.582    -1.764  C    
      8 C           4.565    -7.828    -1.258  C    
      9 O           4.535    -8.907    -2.080  O    
     10 C           4.634    -4.364     1.184  C    
     11 N           5.060    -4.364     2.433  N    
     12 C           5.142    -3.408     3.392  C    
     13 C           4.713    -2.070     3.214  C    
     14 C           4.814    -1.138     4.262  C    
     15 C           5.349    -1.556     5.492  C    
     16 N           5.759    -2.839     5.644  N    
     17 C           5.675    -3.764     4.653  C    
     18 N           6.113    -5.006     4.927  N    
     19 Br          4.232     0.613     4.034  Br   
     20 H           3.949    -9.342     2.058  H    
     21 H           4.821   -10.807     1.601  H    
     22 H           3.603   -10.148     0.505  H    
     23 H           5.384    -6.871     1.851  H    
     24 H           3.866    -4.549    -1.344  H    
     25 H           3.828    -6.504    -2.731  H    
     26 H           4.835    -9.668    -1.543  H    
     27 H           4.301    -3.515     0.795  H    
     28 H           4.319    -1.762     2.324  H    
     29 H           5.433    -0.903     6.272  H    
     30 H           6.471    -5.212     5.805  H    
     31 H           6.072    -5.700     4.250  H    
@<TRIPOS>BOND
     1    1    2 1
     2    2    3 1
     3    3    8 ar
     4    3    4 ar
     5    4    5 ar
     6    5    6 ar
     7    5   10 1
     8    6    7 ar
     9    7    8 ar
    10    8    9 1
    11   10   11 2
    12   11   12 1
    13   12   17 ar
    14   12   13 ar
    15   13   14 ar
    16   14   15 ar
    17   14   19 1
    18   15   16 ar
    19   16   17 ar
    20   17   18 1
    21    1   20 1
    22    1   21 1
    23    1   22 1
    24    4   23 1
    25    6   24 1
    26    7   25 1
    27    9   26 1
    28   10   27 1
    29   13   28 1
    30   15   29 1
    31   18   30 1
    32   18   31 1
@<TRIPOS>MOLECULE
ZINC00714454
 55 59 0 0 0
SMALL
NO_CHARGES


@<TRIPOS>ATOM
      1 C          -2.252    -1.390    -5.551  C    
      2 C          -1.003    -2.138    -5.039  C    
      3 O          -0.452    -1.541    -3.859  O    
      4 C          -0.976    -1.495    -2.597  C    
      5 O          -2.162    -2.112    -2.382  O    
      6 C          -0.262    -0.851    -1.571  C    
      7 C          -0.851    -0.301    -0.471  C    
      8 N          -0.121     0.376     0.427  N    
      9 C           1.209     0.557     0.331  C    
     10 N           1.893     0.046    -0.701  N    
     11 C           3.168     0.390    -0.650  C    
     12 O           3.940     0.128    -1.565  O    
     13 C           3.494     1.157     0.421  C    
     14 C           4.688     1.701     0.735  C    
     15 C           5.919     1.410     0.161  C    
     16 C           6.405     0.082     0.084  C    
     17 C           7.680    -0.185    -0.448  C    
     18 C           8.497     0.867    -0.924  C    
     19 C           8.023     2.196    -0.825  C    
     20 C           6.758     2.465    -0.273  C    
     21 C           9.829     0.563    -1.494  C    
     22 S           2.146     1.504     1.423  S    
     23 C           1.217    -0.743    -1.720  C    
     24 C           1.830    -2.112    -1.758  C    
     25 C           1.772    -2.966    -0.624  C    
     26 C           2.336    -4.258    -0.660  C    
     27 C           2.964    -4.694    -1.837  C    
     28 C           3.033    -3.870    -2.951  C    
     29 C           2.479    -2.578    -2.930  C    
     30 O           3.676    -4.460    -3.973  O    
     31 C           3.864    -5.793    -3.460  C    
     32 O           3.559    -5.879    -2.056  O    
     33 C          -2.282    -0.319    -0.186  C    
     34 H          -3.068    -1.459    -4.824  H    
     35 H          -2.582    -1.833    -6.491  H    
     36 H          -2.010    -0.336    -5.719  H    
     37 H          -1.248    -3.187    -4.848  H    
     38 H          -0.235    -2.099    -5.813  H    
     39 H           4.701     2.407     1.437  H    
     40 H           5.839    -0.702     0.426  H    
     41 H           8.007    -1.154    -0.487  H    
     42 H           8.597     2.978    -1.151  H    
     43 H           6.443     3.439    -0.213  H    
     44 H          10.455     0.092    -0.730  H    
     45 H          10.342     1.461    -1.851  H    
     46 H           9.718    -0.125    -2.338  H    
     47 H           1.399    -0.214    -2.663  H    
     48 H           1.315    -2.651     0.237  H    
     49 H           2.289    -4.870     0.158  H    
     50 H           2.545    -1.994    -3.766  H    
     51 H           3.215    -6.478    -4.007  H    
     52 H           4.897    -6.096    -3.623  H    
     53 H          -2.837     0.103    -1.026  H    
     54 H          -2.544     0.261     0.704  H    
     55 H          -2.612    -1.344    -0.011  H    
@<TRIPOS>BOND
     1    1    2 1
     2    2    3 1
     3    3    4 1
     4    4    5 2
     5    4    6 1
     6    6   23 1
     7    6    7 2
     8    7    8 1
     9    7   33 1
    10    8    9 2
    11    9   22 1
    12    9   10 1
    13   10   11 1
    14   10   23 1
    15   11   12 2
    16   11   13 1
    17   13   14 2
    18   13   22 1
    19   14   15 1
    20   15   20 ar
    21   15   16 ar
    22   16   17 ar
    23   17   18 ar
    24   18   19 ar
    25   18   21 1
    26   19   20 ar
    27   23   24 1
    28   24   29 ar
    29   24   25 ar
    30   25   26 ar
    31   26   27 ar
    32   27   32 1
    33   27   28 ar
    34   28   29 ar
    35   28   30 1
    36   30   31 1
    37   31   32 1
    38    1   34 1
    39    1   35 1
    40    1   36 1
    41    2   37 1
    42    2   38 1
    43   14   39 1
    44   16   40 1
    45   17   41 1
    46   19   42 1
    47   20   43 1
    48   21   44 1
    49   21   45 1
    50   21   46 1
    51   23   47 1
    52   25   48 1
    53   26   49 1
    54   29   50 1
    55   31   51 1
    56   31   52 1
    57   33   53 1
    58   33   54 1
    59   33   55 1
@<TRIPOS>MOLECULE
ZINC00723685
 34 35 0 0 0
SMALL
NO_CHARGES


@<TRIPOS>ATOM
      1 C           4.988   -10.261    -0.087  C    
      2 C           4.550   -11.061    -1.158  C    
      3 C           3.167   -11.299    -1.385  C    
      4 C           2.243   -10.699    -0.487  C    
      5 C           2.679    -9.894     0.580  C    
      6 C           4.058    -9.653     0.791  C    
      7 C           4.509    -8.787     1.919  C    
      8 C           4.230    -7.361     1.796  C    
      9 O           3.644    -6.924     0.816  O    
     10 N           4.629    -6.581     2.795  N    
     11 C           4.563    -5.219     2.975  C    
     12 C           4.246    -4.272     1.974  C    
     13 C           4.240    -2.898     2.264  C    
     14 C           4.553    -2.436     3.556  C    
     15 C           4.888    -3.358     4.588  C    
     16 C           4.885    -4.742     4.267  C    
     17 C           5.236    -2.893     5.968  C    
     18 F           5.531    -3.896     6.865  F    
     19 F           6.345    -2.082     5.926  F    
     20 F           4.187    -2.192     6.513  F    
     21 Cl          4.519    -0.752     3.782  Cl   
     22 N           2.737   -12.078    -2.418  N    
     23 O           3.492   -12.600    -3.198  O    
     24 O           1.471   -12.304    -2.649  O    
     25 H           5.995   -10.118     0.042  H    
     26 H           5.255   -11.472    -1.778  H    
     27 H           1.234   -10.849    -0.601  H    
     28 H           1.984    -9.478     1.209  H    
     29 H           4.040    -9.161     2.832  H    
     30 H           5.590    -8.897     2.054  H    
     31 H           5.032    -7.061     3.537  H    
     32 H           4.040    -4.558     1.017  H    
     33 H           4.011    -2.236     1.517  H    
     34 H           5.128    -5.428     4.990  H    
@<TRIPOS>BOND
     1    1    6 ar
     2    1    2 ar
     3    2    3 ar
     4    3    4 ar
     5    3   22 1
     6    4    5 ar
     7    5    6 ar
     8    6    7 1
     9    7    8 1
    10    8    9 2
    11    8   10 1
    12   10   11 1
    13   11   16 ar
    14   11   12 ar
    15   12   13 ar
    16   13   14 ar
    17   14   15 ar
    18   14   21 1
    19   15   16 ar
    20   15   17 1
    21   17   18 1
    22   17   19 1
    23   17   20 1
    24   22   23 2
    25   22   24 1
    26    1   25 1
    27    2   26 1
    28    4   27 1
    29    5   28 1
    30    7   29 1
    31    7   30 1
    32   10   31 1
    33   12   32 1
    34   13   33 1
    35   16   34 1
@<TRIPOS>MOLECULE
ZINC00783628
 46 48 0 0 0
SMALL
NO_CHARGES


@<TRIPOS>ATOM
      1 C          -2.316     0.645     1.340  C    
      2 C          -1.591     1.220     2.582  C    
      3 N          -1.030     2.548     2.345  N    
      4 C           0.380     2.563     1.953  C    
      5 C           1.328     2.740     3.166  C    
      6 C          -1.775     3.713     2.494  C    
      7 C          -3.180     3.701     2.731  C    
      8 C          -3.940     4.875     2.880  C    
      9 C          -3.333     6.145     2.793  C    
     10 C          -1.940     6.193     2.595  C    
     11 C          -1.192     5.013     2.431  C    
     12 C          -4.049     7.324     2.983  C    
     13 C          -5.263     7.635     2.478  C    
     14 C          -5.989     8.708     2.829  C    
     15 O          -5.732     9.553     3.676  O    
     16 N          -7.095     8.704     2.133  N    
     17 N          -7.103     7.703     1.303  N    
     18 C          -5.977     7.032     1.502  C    
     19 O          -5.549     6.164     0.752  O    
     20 C          -8.090     7.502     0.359  C    
     21 C          -8.831     8.599    -0.154  C    
     22 C          -9.827     8.412    -1.131  C    
     23 C         -10.106     7.122    -1.614  C    
     24 C          -9.395     6.018    -1.112  C    
     25 C          -8.405     6.207    -0.129  C    
     26 Br         -9.764     4.306    -1.749  Br   
     27 H          -3.131     1.296     1.021  H    
     28 H          -2.729    -0.337     1.575  H    
     29 H          -1.614     0.537     0.511  H    
     30 H          -2.266     1.226     3.440  H    
     31 H          -0.809     0.503     2.857  H    
     32 H           0.662     1.631     1.452  H    
     33 H           0.576     3.334     1.204  H    
     34 H           1.102     3.658     3.714  H    
     35 H           2.363     2.785     2.821  H    
     36 H           1.223     1.894     3.847  H    
     37 H          -3.697     2.825     2.796  H    
     38 H          -4.941     4.792     3.072  H    
     39 H          -1.454     7.095     2.546  H    
     40 H          -0.191     5.136     2.290  H    
     41 H          -3.604     8.011     3.553  H    
     42 H          -7.794     9.376     2.206  H    
     43 H          -8.637     9.551     0.164  H    
     44 H         -10.346     9.217    -1.493  H    
     45 H         -10.827     6.992    -2.328  H    
     46 H          -7.923     5.384     0.239  H    
@<TRIPOS>BOND
     1    1    2 1
     2    2    3 1
     3    3    4 1
     4    3    6 1
     5    4    5 1
     6    6   11 ar
     7    6    7 ar
     8    7    8 ar
     9    8    9 ar
    10    9   10 ar
    11    9   12 1
    12   10   11 ar
    13   12   13 2
    14   13   18 1
    15   13   14 1
    16   14   15 2
    17   14   16 1
    18   16   17 1
    19   17   18 1
    20   17   20 1
    21   18   19 2
    22   20   25 ar
    23   20   21 ar
    24   21   22 ar
    25   22   23 ar
    26   23   24 ar
    27   24   25 ar
    28   24   26 1
    29    1   27 1
    30    1   28 1
    31    1   29 1
    32    2   30 1
    33    2   31 1
    34    4   32 1
    35    4   33 1
    36    5   34 1
    37    5   35 1
    38    5   36 1
    39    7   37 1
    40    8   38 1
    41   10   39 1
    42   11   40 1
    43   12   41 1
    44   16   42 1
    45   21   43 1
    46   22   44 1
    47   23   45 1
    48   25   46 1
@<TRIPOS>MOLECULE
ZINC00784502
 38 41 0 0 0
SMALL
NO_CHARGES


@<TRIPOS>ATOM
      1 C           2.448     9.557    -0.045  C    
      2 C           2.788     8.248    -0.441  C    
      3 C           2.723     7.193     0.491  C    
      4 C           2.328     7.453     1.817  C    
      5 C           2.008     8.768     2.234  C    
      6 C           2.063     9.817     1.283  C    
      7 C           1.630     8.962     3.566  C    
      8 C           1.521     7.950     4.463  C    
      9 C           1.844     6.652     4.023  C    
     10 O           1.865     5.571     4.836  O    
     11 O           2.243     6.440     2.734  O    
     12 C           1.095     8.214     5.774  C    
     13 C           0.268     7.379     6.547  C    
     14 S          -0.026     8.167     8.043  S    
     15 C           0.911     9.559     7.664  C    
     16 N           1.414     9.374     6.422  N    
     17 N           1.190    10.660     8.406  N    
     18 C           0.765    10.980     9.666  C    
     19 C          -0.536    10.720    10.156  C    
     20 C          -0.905    11.128    11.450  C    
     21 C           0.014    11.800    12.280  C    
     22 C           1.325    12.082    11.815  C    
     23 C           1.665    11.683    10.494  C    
     24 C           2.300    12.738    12.618  C    
     25 O           3.570    12.927    12.190  O    
     26 O          -0.400    12.173    13.524  O    
     27 O           2.045    13.163    13.877  O    
     28 H           2.479    10.319    -0.728  H    
     29 H           3.070     8.061    -1.407  H    
     30 H           2.959     6.242     0.200  H    
     31 H           1.814    10.777     1.553  H    
     32 H           1.399     9.889     3.849  H    
     33 H          -0.133     6.479     6.274  H    
     34 H           1.855    11.261     8.026  H    
     35 H          -1.233    10.267     9.566  H    
     36 H          -1.855    10.942    11.782  H    
     37 H           2.592    11.896    10.123  H    
     38 H          -1.337    11.900    13.599  H    
@<TRIPOS>BOND
     1    1    6 ar
     2    1    2 ar
     3    2    3 ar
     4    3    4 ar
     5    4   11 1
     6    4    5 ar
     7    5    6 ar
     8    5    7 1
     9    7    8 2
    10    8    9 1
    11    8   12 1
    12    9   10 2
    13    9   11 1
    14   12   16 1
    15   12   13 2
    16   13   14 1
    17   14   15 1
    18   15   16 2
    19   15   17 1
    20   17   18 1
    21   18   23 ar
    22   18   19 ar
    23   19   20 ar
    24   20   21 ar
    25   21   22 ar
    26   21   26 1
    27   22   23 ar
    28   22   24 1
    29   24   25 2
    30   24   27 1
    31    1   28 1
    32    2   29 1
    33    3   30 1
    34    6   31 1
    35    7   32 1
    36   13   33 1
    37   17   34 1
    38   19   35 1
    39   20   36 1
    40   23   37 1
    41   26   38 1
@<TRIPOS>MOLECULE
ZINC00794741
 42 44 0 0 0
SMALL
NO_CHARGES


@<TRIPOS>ATOM
      1 C           5.674   -12.476     1.939  C    
      2 C           6.249   -13.733     1.689  C    
      3 C           7.137   -13.902     0.604  C    
      4 C           7.436   -12.805    -0.233  C    
      5 C           6.862   -11.548     0.021  C    
      6 C           5.971   -11.365     1.115  C    
      7 O           5.399   -10.165     1.498  O    
      8 C           5.280    -9.082     0.561  C    
      9 C           4.570    -7.979     1.221  C    
     10 N           3.422    -7.428     0.816  N    
     11 C           3.110    -6.436     1.672  C    
     12 C           4.030    -6.473     2.732  C    
     13 O           4.942    -7.416     2.389  O    
     14 N           4.095    -5.793     3.923  N    
     15 C           3.178    -4.731     4.294  C    
     16 C           3.906    -3.489     4.879  C    
     17 C           4.872    -3.861     6.048  C    
     18 C           5.827    -4.987     5.542  C    
     19 C           5.043    -6.193     4.949  C    
     20 C           5.616    -2.735     6.621  C    
     21 O           5.587    -1.621     6.119  O    
     22 N           6.307    -2.879     7.723  N    
     23 C           1.886    -6.018     1.664  C    
     24 N           0.779    -5.690     1.702  N    
     25 Cl          7.852   -15.416     0.313  Cl   
     26 H           5.049   -12.366     2.725  H    
     27 H           6.031   -14.512     2.294  H    
     28 H           8.072   -12.917    -1.011  H    
     29 H           7.105   -10.780    -0.584  H    
     30 H           6.265    -8.713     0.269  H    
     31 H           4.729    -9.402    -0.328  H    
     32 H           2.593    -4.334     3.469  H    
     33 H           2.473    -5.113     5.038  H    
     34 H           4.475    -3.005     4.076  H    
     35 H           3.159    -2.770     5.238  H    
     36 H           4.249    -4.287     6.845  H    
     37 H           6.491    -4.584     4.768  H    
     38 H           6.456    -5.348     6.365  H    
     39 H           4.491    -6.679     5.760  H    
     40 H           5.797    -6.916     4.620  H    
     41 H           6.768    -2.129     8.099  H    
     42 H           6.326    -3.728     8.166  H    
@<TRIPOS>BOND
     1    1    6 ar
     2    1    2 ar
     3    2    3 ar
     4    3    4 ar
     5    3   25 1
     6    4    5 ar
     7    5    6 ar
     8    6    7 1
     9    7    8 1
    10    8    9 1
    11    9   13 1
    12    9   10 2
    13   10   11 1
    14   11   12 2
    15   11   23 1
    16   12   13 1
    17   12   14 1
    18   14   19 1
    19   14   15 1
    20   15   16 1
    21   16   17 1
    22   17   18 1
    23   17   20 1
    24   18   19 1
    25   20   21 2
    26   20   22 1
    27   23   24 3
    28    1   26 1
    29    2   27 1
    30    4   28 1
    31    5   29 1
    32    8   30 1
    33    8   31 1
    34   15   32 1
    35   15   33 1
    36   16   34 1
    37   16   35 1
    38   17   36 1
    39   18   37 1
    40   18   38 1
    41   19   39 1
    42   19   40 1
    43   22   41 1
    44   22   42 1
@<TRIPOS>MOLECULE
ZINC00795878
 50 52 0 0 0
SMALL
NO_CHARGES


@<TRIPOS>ATOM
      1 C           7.710   -10.103    -1.754  C    
      2 C           6.974    -8.931    -1.218  C    
      3 C           5.737    -8.551    -1.789  C    
      4 C           5.031    -7.433    -1.316  C    
      5 C           5.548    -6.662    -0.260  C    
      6 C           6.773    -7.033     0.323  C    
      7 C           7.482    -8.157    -0.142  C    
      8 Cl          8.952    -8.526     0.621  Cl   
      9 S           4.685    -5.264     0.316  S    
     10 O           3.526    -4.833    -0.685  O    
     11 O           5.654    -4.003     0.279  O    
     12 N           4.010    -5.453     1.859  N    
     13 C           2.849    -6.292     2.023  C    
     14 C           3.223    -7.602     2.764  C    
     15 C           3.988    -7.297     4.089  C    
     16 C           5.196    -6.353     3.818  C    
     17 C           4.749    -5.089     3.039  C    
     18 C           4.412    -8.507     4.780  C    
     19 O           5.145    -9.309     4.209  O    
     20 N           4.000    -8.727     6.027  N    
     21 C           4.360    -9.841     6.861  C    
     22 C           5.807    -9.728     7.396  C    
     23 C           5.709    -8.810     8.631  C    
     24 C           4.252    -8.917     9.137  C    
     25 C           3.516    -9.852     8.154  C    
     26 H           8.690    -9.784    -2.113  H    
     27 H           7.186   -10.577    -2.586  H    
     28 H           7.839   -10.846    -0.970  H    
     29 H           5.338    -9.083    -2.562  H    
     30 H           4.142    -7.185    -1.754  H    
     31 H           7.153    -6.474     1.085  H    
     32 H           2.103    -5.745     2.605  H    
     33 H           2.383    -6.544     1.071  H    
     34 H           2.308    -8.161     2.987  H    
     35 H           3.844    -8.210     2.101  H    
     36 H           3.295    -6.746     4.736  H    
     37 H           5.660    -6.047     4.760  H    
     38 H           5.953    -6.878     3.236  H    
     39 H           5.625    -4.479     2.815  H    
     40 H           4.103    -4.485     3.681  H    
     41 H           3.393    -8.073     6.411  H    
     42 H           4.212   -10.781     6.313  H    
     43 H           6.165   -10.716     7.696  H    
     44 H           6.498    -9.320     6.655  H    
     45 H           6.419    -9.109     9.407  H    
     46 H           5.925    -7.777     8.339  H    
     47 H           4.213    -9.313    10.154  H    
     48 H           3.780    -7.927     9.131  H    
     49 H           2.485    -9.527     7.979  H    
     50 H           3.493   -10.867     8.560  H    
@<TRIPOS>BOND
     1    1    2 1
     2    2    7 ar
     3    2    3 ar
     4    3    4 ar
     5    4    5 ar
     6    5    6 ar
     7    5    9 1
     8    6    7 ar
     9    7    8 1
    10    9   10 2
    11    9   11 2
    12    9   12 1
    13   12   17 1
    14   12   13 1
    15   13   14 1
    16   14   15 1
    17   15   16 1
    18   15   18 1
    19   16   17 1
    20   18   19 2
    21   18   20 1
    22   20   21 1
    23   21   25 1
    24   21   22 1
    25   22   23 1
    26   23   24 1
    27   24   25 1
    28    1   26 1
    29    1   27 1
    30    1   28 1
    31    3   29 1
    32    4   30 1
    33    6   31 1
    34   13   32 1
    35   13   33 1
    36   14   34 1
    37   14   35 1
    38   15   36 1
    39   16   37 1
    40   16   38 1
    41   17   39 1
    42   17   40 1
    43   20   41 1
    44   21   42 1
    45   22   43 1
    46   22   44 1
    47   23   45 1
    48   23   46 1
    49   24   47 1
    50   24   48 1
    51   25   49 1
    52   25   50 1
@<TRIPOS>MOLECULE
ZINC00803704
 40 42 0 0 0
SMALL
NO_CHARGES


@<TRIPOS>ATOM
      1 C          -4.894    -0.593     4.830  C    
      2 C          -3.972     0.639     4.747  C    
      3 O          -4.590     1.665     3.963  O    
      4 C          -4.025     2.853     3.618  C    
      5 O          -2.755     3.142     3.994  O    
      6 C          -4.840     3.804     2.841  C    
      7 C          -4.112     4.997     2.372  C    
      8 C          -3.083     5.074     1.436  C    
      9 C          -2.755     6.417     1.364  C    
     10 N          -3.553     7.105     2.195  N    
     11 N          -4.347     6.261     2.780  N    
     12 O          -1.774     6.909     0.544  O    
     13 C          -1.010     6.013    -0.130  C    
     14 C          -1.254     4.681    -0.179  C    
     15 C          -2.368     4.079     0.591  C    
     16 C          -3.346     3.362    -0.298  C    
     17 C          -4.032     4.103    -1.295  C    
     18 C          -4.957     3.498    -2.161  C    
     19 C          -5.223     2.127    -2.045  C    
     20 C          -4.560     1.369    -1.068  C    
     21 C          -3.625     1.971    -0.203  C    
     22 Cl         -2.883     0.940     0.915  Cl   
     23 C          -0.442     3.868    -0.770  C    
     24 N           0.269     3.142    -1.293  N    
     25 N          -0.029     6.571    -0.768  N    
     26 H          -5.847    -0.318     5.285  H    
     27 H          -4.426    -1.372     5.435  H    
     28 H          -5.079    -0.988     3.829  H    
     29 H          -3.782     1.021     5.751  H    
     30 H          -3.019     0.348     4.298  H    
     31 H          -5.257     3.292     1.975  H    
     32 H          -5.676     4.112     3.471  H    
     33 H          -5.023     6.511     3.431  H    
     34 H          -1.919     3.389     1.311  H    
     35 H          -3.858     5.102    -1.405  H    
     36 H          -5.432     4.050    -2.869  H    
     37 H          -5.892     1.684    -2.667  H    
     38 H          -4.766     0.374    -1.000  H    
     39 H           0.566     6.065    -1.270  H    
     40 H           0.101     7.487    -0.734  H    
@<TRIPOS>BOND
     1    1    2 1
     2    2    3 1
     3    3    4 1
     4    4    5 2
     5    4    6 1
     6    6    7 1
     7    7   11 1
     8    7    8 2
     9    8   15 1
    10    8    9 1
    11    9   10 2
    12    9   12 1
    13   10   11 1
    14   12   13 1
    15   13   14 2
    16   13   25 1
    17   14   15 1
    18   14   23 1
    19   15   16 1
    20   16   21 ar
    21   16   17 ar
    22   17   18 ar
    23   18   19 ar
    24   19   20 ar
    25   20   21 ar
    26   21   22 1
    27   23   24 3
    28    1   26 1
    29    1   27 1
    30    1   28 1
    31    2   29 1
    32    2   30 1
    33    6   31 1
    34    6   32 1
    35   11   33 1
    36   15   34 1
    37   17   35 1
    38   18   36 1
    39   19   37 1
    40   20   38 1
    41   25   39 1
    42   25   40 1
@<TRIPOS>MOLECULE
ZINC00823685
 51 53 0 0 0
SMALL
NO_CHARGES


@<TRIPOS>ATOM
      1 C           5.515    -1.863    -8.751  C    
      2 C           5.873    -1.650    -7.354  C    
      3 C           5.057    -1.153    -6.387  C    
      4 C           5.628    -0.874    -5.045  C    
      5 C           7.092    -1.067    -4.919  C    
      6 C           7.754    -1.649    -5.952  C    
      7 N           7.124    -1.937    -7.066  N    
      8 C           9.189    -1.925    -5.906  C    
      9 C           9.687    -2.144    -4.454  C    
     10 C           9.165    -1.020    -3.525  C    
     11 C           7.768    -0.680    -3.775  C    
     12 O           7.255     0.107    -2.989  O    
     13 C           4.923    -1.702    -4.007  C    
     14 C           5.003    -3.115    -4.028  C    
     15 C           4.336    -3.895    -3.067  C    
     16 C           3.559    -3.288    -2.052  C    
     17 C           3.483    -1.880    -2.028  C    
     18 C           4.152    -1.099    -2.986  C    
     19 O           2.861    -3.933    -1.056  O    
     20 C           2.835    -5.370    -0.984  C    
     21 C           3.692    -0.924    -6.577  C    
     22 O           2.928    -1.824    -7.237  O    
     23 O           3.092     0.122    -5.943  O    
     24 C           1.711     0.510    -5.927  C    
     25 C           1.556     1.628    -4.870  C    
     26 C           1.238     0.973    -7.329  C    
     27 H           6.296    -1.471    -9.406  H    
     28 H           4.593    -1.361    -9.043  H    
     29 H           5.405    -2.934    -8.945  H    
     30 H           5.450     0.195    -4.864  H    
     31 H           7.639    -2.312    -7.752  H    
     32 H           9.435    -2.815    -6.490  H    
     33 H           9.718    -1.075    -6.346  H    
     34 H           9.319    -3.107    -4.095  H    
     35 H          10.781    -2.170    -4.431  H    
     36 H           9.283    -1.343    -2.487  H    
     37 H           9.770    -0.122    -3.670  H    
     38 H           5.555    -3.592    -4.748  H    
     39 H           4.426    -4.909    -3.125  H    
     40 H           2.936    -1.414    -1.302  H    
     41 H           4.072    -0.080    -2.934  H    
     42 H           2.404    -5.798    -1.891  H    
     43 H           2.211    -5.661    -0.135  H    
     44 H           3.838    -5.772    -0.819  H    
     45 H           1.103    -0.344    -5.614  H    
     46 H           1.863     1.255    -3.893  H    
     47 H           0.520     1.956    -4.805  H    
     48 H           2.184     2.484    -5.127  H    
     49 H           1.859     1.801    -7.684  H    
     50 H           0.197     1.308    -7.291  H    
     51 H           1.306     0.157    -8.043  H    
@<TRIPOS>BOND
     1    1    2 1
     2    2    7 1
     3    2    3 2
     4    3    4 1
     5    3   21 1
     6    4    5 1
     7    4   13 1
     8    5   11 1
     9    5    6 2
    10    6    7 1
    11    6    8 1
    12    8    9 1
    13    9   10 1
    14   10   11 1
    15   11   12 2
    16   13   18 ar
    17   13   14 ar
    18   14   15 ar
    19   15   16 ar
    20   16   17 ar
    21   16   19 1
    22   17   18 ar
    23   19   20 1
    24   21   22 2
    25   21   23 1
    26   23   24 1
    27   24   25 1
    28   24   26 1
    29    1   27 1
    30    1   28 1
    31    1   29 1
    32    4   30 1
    33    7   31 1
    34    8   32 1
    35    8   33 1
    36    9   34 1
    37    9   35 1
    38   10   36 1
    39   10   37 1
    40   14   38 1
    41   15   39 1
    42   17   40 1
    43   18   41 1
    44   20   42 1
    45   20   43 1
    46   20   44 1
    47   24   45 1
    48   25   46 1
    49   25   47 1
    50   25   48 1
    51   26   49 1
    52   26   50 1
    53   26   51 1
@<TRIPOS>MOLECULE
ZINC00825449
 41 44 0 0 0
SMALL
NO_CHARGES


@<TRIPOS>ATOM
      1 C           2.197     9.917     1.341  C    
      2 C           3.342     9.427     0.688  C    
      3 C           3.272     8.230    -0.049  C    
      4 C           2.064     7.504    -0.136  C    
      5 C           0.918     8.007     0.524  C    
      6 C           0.985     9.208     1.257  C    
      7 O           2.099     6.360    -0.886  O    
      8 C           1.256     5.317    -1.130  C    
      9 O           0.063     5.248    -0.495  O    
     10 C           1.644     4.288    -2.030  C    
     11 C           2.824     4.414    -2.815  C    
     12 C           3.212     3.409    -3.725  C    
     13 C           2.409     2.262    -3.847  C    
     14 C           1.258     2.114    -3.083  C    
     15 C           0.858     3.112    -2.176  C    
     16 C           0.714     0.913    -3.429  C    
     17 O          -0.307     0.447    -2.940  O    
     18 N           1.471     0.356    -4.368  N    
     19 C           2.506     1.149    -4.626  C    
     20 O           3.395     0.950    -5.443  O    
     21 C           1.235    -0.861    -4.960  C    
     22 C           2.141    -1.908    -4.662  C    
     23 C           1.938    -3.202    -5.166  C    
     24 C           0.822    -3.468    -5.972  C    
     25 C          -0.080    -2.436    -6.287  C    
     26 C           0.111    -1.116    -5.803  C    
     27 C          -0.801    -0.098    -6.208  C    
     28 O          -0.474     1.214    -6.169  O    
     29 O          -1.973    -0.386    -6.820  O    
     30 H           2.244    10.789     1.872  H    
     31 H           4.224     9.943     0.745  H    
     32 H           4.111     7.886    -0.523  H    
     33 H           0.022     7.522     0.465  H    
     34 H           0.150     9.569     1.724  H    
     35 H           3.414     5.247    -2.741  H    
     36 H           4.058     3.515    -4.288  H    
     37 H           0.003     2.973    -1.632  H    
     38 H           2.950    -1.735    -4.058  H    
     39 H           2.599    -3.950    -4.941  H    
     40 H           0.670    -4.411    -6.337  H    
     41 H          -0.872    -2.663    -6.895  H    
@<TRIPOS>BOND
     1    1    6 ar
     2    1    2 ar
     3    2    3 ar
     4    3    4 ar
     5    4    5 ar
     6    4    7 1
     7    5    6 ar
     8    7    8 1
     9    8    9 2
    10    8   10 1
    11   10   15 ar
    12   10   11 ar
    13   11   12 ar
    14   12   13 ar
    15   13   19 1
    16   13   14 ar
    17   14   15 ar
    18   14   16 1
    19   16   17 2
    20   16   18 1
    21   18   19 1
    22   18   21 1
    23   19   20 2
    24   21   26 ar
    25   21   22 ar
    26   22   23 ar
    27   23   24 ar
    28   24   25 ar
    29   25   26 ar
    30   26   27 1
    31   27   28 2
    32   27   29 1
    33    1   30 1
    34    2   31 1
    35    3   32 1
    36    5   33 1
    37    6   34 1
    38   11   35 1
    39   12   36 1
    40   15   37 1
    41   22   38 1
    42   23   39 1
    43   24   40 1
    44   25   41 1
@<TRIPOS>MOLECULE
ZINC00827075
 42 45 0 0 0
SMALL
NO_CHARGES


@<TRIPOS>ATOM
      1 C          -0.813    -5.521     4.087  C    
      2 O           0.599    -5.737     4.261  O    
      3 C           1.100    -6.729     3.458  C    
      4 C           1.003    -8.070     3.884  C    
      5 C           1.527    -9.107     3.093  C    
      6 C           2.157    -8.808     1.871  C    
      7 C           2.279    -7.467     1.457  C    
      8 C           1.779    -6.410     2.257  C    
      9 N           1.871    -5.088     1.912  N    
     10 C           2.821    -4.454     1.235  C    
     11 O           3.837    -5.037     0.877  O    
     12 C           2.748    -3.089     1.006  C    
     13 C           1.687    -2.201     1.200  C    
     14 C           2.170    -0.967     0.803  C    
     15 N           1.588     0.254     0.765  N    
     16 C           2.262     1.319     0.337  C    
     17 C           3.576     1.162    -0.073  C    
     18 C           4.179    -0.056    -0.048  C    
     19 N           3.446    -1.113     0.397  N    
     20 N           3.779    -2.365     0.514  N    
     21 C           5.568    -0.264    -0.471  C    
     22 F           5.607    -1.161    -1.512  F    
     23 F           6.235     0.862    -0.901  F    
     24 F           6.300    -0.774     0.574  F    
     25 C           1.603     2.547     0.324  C    
     26 C           0.271     2.799     0.702  C    
     27 C          -0.147     4.136     0.592  C    
     28 C           0.834     5.009     0.123  C    
     29 S           2.247     4.076    -0.156  S    
     30 Br         -0.050    -2.495     1.803  Br   
     31 Cl          2.765   -10.057     0.904  Cl   
     32 H          -1.061    -5.291     3.047  H    
     33 H          -1.106    -4.671     4.704  H    
     34 H          -1.386    -6.392     4.413  H    
     35 H           0.545    -8.295     4.771  H    
     36 H           1.441   -10.076     3.408  H    
     37 H           2.717    -7.269     0.556  H    
     38 H           1.186    -4.520     2.290  H    
     39 H           4.084     1.954    -0.391  H    
     40 H          -0.363     2.069     1.035  H    
     41 H          -1.091     4.445     0.837  H    
     42 H           0.735     6.014    -0.027  H    
@<TRIPOS>BOND
     1    1    2 1
     2    2    3 1
     3    3    8 ar
     4    3    4 ar
     5    4    5 ar
     6    5    6 ar
     7    6    7 ar
     8    6   31 1
     9    7    8 ar
    10    8    9 1
    11    9   10 1
    12   10   11 2
    13   10   12 1
    14   12   20 2
    15   12   13 1
    16   13   14 2
    17   13   30 1
    18   14   19 1
    19   14   15 1
    20   15   16 2
    21   16   17 1
    22   16   25 1
    23   17   18 2
    24   18   19 1
    25   18   21 1
    26   19   20 1
    27   21   22 1
    28   21   23 1
    29   21   24 1
    30   25   29 1
    31   25   26 2
    32   26   27 1
    33   27   28 2
    34   28   29 1
    35    1   32 1
    36    1   33 1
    37    1   34 1
    38    4   35 1
    39    5   36 1
    40    7   37 1
    41    9   38 1
    42   17   39 1
    43   26   40 1
    44   27   41 1
    45   28   42 1
@<TRIPOS>MOLECULE
ZINC00985000
 46 48 0 0 0
SMALL
NO_CHARGES


@<TRIPOS>ATOM
      1 C           7.497   -13.894   -11.475  C    
      2 C           7.001   -13.560   -10.121  C    
      3 C           7.640   -12.592    -9.314  C    
      4 C           7.141   -12.284    -8.036  C    
      5 C           5.994   -12.937    -7.539  C    
      6 C           5.356   -13.908    -8.337  C    
      7 C           5.854   -14.216    -9.616  C    
      8 S           5.391   -12.532    -5.951  S    
      9 O           4.025   -13.293    -5.644  O    
     10 O           6.518   -12.953    -4.907  O    
     11 N           5.162   -10.863    -5.844  N    
     12 C           4.732   -10.198    -4.750  C    
     13 N           4.419   -10.850    -3.611  N    
     14 N           4.660    -8.851    -4.886  N    
     15 C           4.268    -7.913    -3.992  C    
     16 N           3.806    -8.172    -2.742  N    
     17 C           3.430    -7.210    -1.856  C    
     18 C           3.524    -5.845    -2.251  C    
     19 C           3.175    -4.735    -1.444  C    
     20 C           3.306    -3.422    -1.928  C    
     21 C           3.777    -3.171    -3.235  C    
     22 C           4.123    -4.272    -4.049  C    
     23 C           4.000    -5.590    -3.568  C    
     24 N           4.351    -6.618    -4.380  N    
     25 C           3.905    -1.777    -3.720  C    
     26 C           2.947    -7.728    -0.552  C    
     27 H           7.747   -14.956   -11.528  H    
     28 H           8.387   -13.320   -11.736  H    
     29 H           6.721   -13.679   -12.212  H    
     30 H           8.470   -12.101    -9.652  H    
     31 H           7.619   -11.578    -7.473  H    
     32 H           4.526   -14.398    -7.999  H    
     33 H           5.372   -14.921   -10.180  H    
     34 H           5.374   -10.338    -6.633  H    
     35 H           4.123   -10.363    -2.832  H    
     36 H           4.937    -8.503    -5.748  H    
     37 H           2.827    -4.855    -0.497  H    
     38 H           3.046    -2.642    -1.319  H    
     39 H           4.474    -4.115    -4.997  H    
     40 H           2.933    -1.283    -3.691  H    
     41 H           4.281    -1.732    -4.746  H    
     42 H           4.600    -1.229    -3.078  H    
     43 H           2.032    -8.308    -0.709  H    
     44 H           2.729    -6.954     0.177  H    
     45 H           3.707    -8.385    -0.117  H    
     46 H           4.499   -11.814    -3.567  H    
@<TRIPOS>BOND
     1    1    2 1
     2    2    7 ar
     3    2    3 ar
     4    3    4 ar
     5    4    5 ar
     6    5    6 ar
     7    5    8 1
     8    6    7 ar
     9    8    9 2
    10    8   10 2
    11    8   11 1
    12   11   12 1
    13   12   13 2
    14   12   14 1
    15   14   15 1
    16   15   24 ar
    17   15   16 ar
    18   16   17 ar
    19   17   18 ar
    20   17   26 1
    21   18   23 ar
    22   18   19 ar
    23   19   20 ar
    24   20   21 ar
    25   21   22 ar
    26   21   25 1
    27   22   23 ar
    28   23   24 ar
    29    1   27 1
    30    1   28 1
    31    1   29 1
    32    3   30 1
    33    4   31 1
    34    6   32 1
    35    7   33 1
    36   11   34 1
    37   13   35 1
    38   14   36 1
    39   19   37 1
    40   20   38 1
    41   22   39 1
    42   25   40 1
    43   25   41 1
    44   25   42 1
    45   26   43 1
    46   26   44 1
    47   26   45 1
    48   13   46 1
@<TRIPOS>MOLECULE
ZINC00852544
 32 33 0 0 0
SMALL
NO_CHARGES


@<TRIPOS>ATOM
      1 C           7.272   -10.456     0.036  C    
      2 O           6.316    -9.541    -0.536  O    
      3 C           5.716    -8.586     0.265  C    
      4 C           5.958    -8.414     1.650  C    
      5 C           5.293    -7.407     2.381  C    
      6 C           4.367    -6.543     1.751  C    
      7 C           4.130    -6.717     0.367  C    
      8 C           4.794    -7.725    -0.368  C    
      9 N           3.669    -5.530     2.376  N    
     10 C           3.643    -5.108     3.643  C    
     11 O           4.323    -5.622     4.528  O    
     12 C           2.876    -4.018     3.949  C    
     13 C           3.295    -2.975     4.702  C    
     14 C           4.611    -2.699     4.975  C    
     15 C           5.185    -2.491     6.238  C    
     16 C           6.577    -2.268     6.220  C    
     17 C           7.124    -2.261     4.933  C    
     18 S           5.862    -2.555     3.818  S    
     19 Br          8.897    -1.992     4.494  Br   
     20 C           1.622    -4.126     3.713  C    
     21 N           0.495    -4.242     3.537  N    
     22 H           8.121    -9.907     0.447  H    
     23 H           7.641   -11.133    -0.733  H    
     24 H           6.801   -11.051     0.820  H    
     25 H           6.612    -9.011     2.142  H    
     26 H           5.508    -7.335     3.364  H    
     27 H           3.472    -6.116    -0.118  H    
     28 H           4.603    -7.831    -1.361  H    
     29 H           3.089    -5.026     1.785  H    
     30 H           2.664    -2.302     5.040  H    
     31 H           4.657    -2.518     7.099  H    
     32 H           7.138    -2.115     7.048  H    
@<TRIPOS>BOND
     1    1    2 1
     2    2    3 1
     3    3    8 ar
     4    3    4 ar
     5    4    5 ar
     6    5    6 ar
     7    6    7 ar
     8    6    9 1
     9    7    8 ar
    10    9   10 1
    11   10   11 2
    12   10   12 1
    13   12   13 2
    14   12   20 1
    15   13   14 1
    16   14   18 1
    17   14   15 2
    18   15   16 1
    19   16   17 2
    20   17   18 1
    21   17   19 1
    22   20   21 3
    23    1   22 1
    24    1   23 1
    25    1   24 1
    26    4   25 1
    27    5   26 1
    28    7   27 1
    29    8   28 1
    30    9   29 1
    31   13   30 1
    32   15   31 1
    33   16   32 1
@<TRIPOS>MOLECULE
ZINC00859139
 39 40 0 0 0
SMALL
NO_CHARGES


@<TRIPOS>ATOM
      1 C           4.602   -11.368    -1.484  C    
      2 C           4.964   -10.177    -0.579  C    
      3 O           3.774    -9.408    -0.316  O    
      4 C           4.001    -8.299     0.454  C    
      5 C           3.988    -8.401     1.857  C    
      6 C           4.191    -7.262     2.657  C    
      7 C           4.395    -5.980     2.081  C    
      8 C           4.374    -5.897     0.662  C    
      9 C           4.177    -7.035    -0.142  C    
     10 Br          4.160    -6.847    -1.995  Br   
     11 C           4.604    -4.834     2.867  C    
     12 O           4.441    -3.732     2.357  O    
     13 N           4.930    -4.926     4.155  N    
     14 C           5.182    -3.957     5.092  C    
     15 C           5.627    -2.642     4.813  C    
     16 C           5.882    -1.716     5.849  C    
     17 C           5.699    -2.125     7.189  C    
     18 C           5.279    -3.436     7.500  C    
     19 C           5.033    -4.340     6.443  C    
     20 C           5.112    -3.834     8.916  C    
     21 C           6.344    -0.349     5.514  C    
     22 H           3.873   -12.009    -0.986  H    
     23 H           5.497   -11.953    -1.705  H    
     24 H           4.177   -11.009    -2.424  H    
     25 H           5.387   -10.564     0.354  H    
     26 H           5.720    -9.569    -1.087  H    
     27 H           3.830    -9.309     2.300  H    
     28 H           4.164    -7.387     3.670  H    
     29 H           4.513    -4.998     0.193  H    
     30 H           4.962    -5.827     4.506  H    
     31 H           5.800    -2.353     3.850  H    
     32 H           5.882    -1.464     7.949  H    
     33 H           4.729    -5.294     6.661  H    
     34 H           6.060    -3.720     9.445  H    
     35 H           4.790    -4.873     9.016  H    
     36 H           4.363    -3.198     9.392  H    
     37 H           7.286    -0.403     4.966  H    
     38 H           6.501     0.263     6.404  H    
     39 H           5.600     0.147     4.887  H    
@<TRIPOS>BOND
     1    1    2 1
     2    2    3 1
     3    3    4 1
     4    4    9 ar
     5    4    5 ar
     6    5    6 ar
     7    6    7 ar
     8    7    8 ar
     9    7   11 1
    10    8    9 ar
    11    9   10 1
    12   11   12 2
    13   11   13 1
    14   13   14 1
    15   14   19 ar
    16   14   15 ar
    17   15   16 ar
    18   16   17 ar
    19   16   21 1
    20   17   18 ar
    21   18   19 ar
    22   18   20 1
    23    1   22 1
    24    1   23 1
    25    1   24 1
    26    2   25 1
    27    2   26 1
    28    5   27 1
    29    6   28 1
    30    8   29 1
    31   13   30 1
    32   15   31 1
    33   17   32 1
    34   19   33 1
    35   20   34 1
    36   20   35 1
    37   20   36 1
    38   21   37 1
    39   21   38 1
    40   21   39 1
@<TRIPOS>MOLECULE
ZINC00874332
 44 45 0 0 0
SMALL
NO_CHARGES


@<TRIPOS>ATOM
      1 C           6.501    -9.287    -2.246  C    
      2 C           5.009    -9.098    -1.805  C    
      3 C           4.360    -8.109    -2.829  C    
      4 C           4.326   -10.497    -1.936  C    
      5 C           4.831    -8.564    -0.390  C    
      6 C           5.913    -8.243     0.471  C    
      7 C           5.711    -7.741     1.773  C    
      8 C           4.413    -7.524     2.290  C    
      9 C           3.327    -7.859     1.441  C    
     10 C           3.533    -8.357     0.142  C    
     11 C           4.198    -7.009     3.581  C    
     12 O           3.078    -7.101     4.071  O    
     13 N           5.179    -6.396     4.247  N    
     14 C           5.238    -5.775     5.478  C    
     15 C           4.214    -5.811     6.459  C    
     16 C           4.333    -5.106     7.671  C    
     17 C           5.498    -4.366     7.955  C    
     18 C           6.534    -4.339     7.002  C    
     19 C           6.413    -5.035     5.781  C    
     20 N           7.452    -4.957     4.919  N    
     21 O           5.629    -3.591     9.079  O    
     22 C           5.736    -4.309    10.321  C    
     23 H           6.564    -9.660    -3.271  H    
     24 H           7.018   -10.003    -1.603  H    
     25 H           7.036    -8.338    -2.205  H    
     26 H           4.808    -7.118    -2.743  H    
     27 H           3.286    -8.013    -2.672  H    
     28 H           4.505    -8.452    -3.857  H    
     29 H           4.482   -10.921    -2.933  H    
     30 H           3.250   -10.435    -1.780  H    
     31 H           4.730   -11.193    -1.198  H    
     32 H           6.879    -8.371     0.177  H    
     33 H           6.540    -7.546     2.340  H    
     34 H           2.364    -7.727     1.755  H    
     35 H           2.705    -8.572    -0.416  H    
     36 H           6.004    -6.332     3.747  H    
     37 H           3.359    -6.342     6.313  H    
     38 H           3.565    -5.129     8.342  H    
     39 H           7.375    -3.791     7.199  H    
     40 H           8.244    -4.447     5.154  H    
     41 H           7.420    -5.423     4.068  H    
     42 H           4.751    -4.670    10.636  H    
     43 H           6.107    -3.617    11.082  H    
     44 H           6.434    -5.155    10.254  H    
@<TRIPOS>BOND
     1    1    2 1
     2    2    3 1
     3    2    4 1
     4    2    5 1
     5    5   10 ar
     6    5    6 ar
     7    6    7 ar
     8    7    8 ar
     9    8    9 ar
    10    8   11 1
    11    9   10 ar
    12   11   12 2
    13   11   13 1
    14   13   14 1
    15   14   19 ar
    16   14   15 ar
    17   15   16 ar
    18   16   17 ar
    19   17   18 ar
    20   17   21 1
    21   18   19 ar
    22   19   20 1
    23   21   22 1
    24    1   23 1
    25    1   24 1
    26    1   25 1
    27    3   26 1
    28    3   27 1
    29    3   28 1
    30    4   29 1
    31    4   30 1
    32    4   31 1
    33    6   32 1
    34    7   33 1
    35    9   34 1
    36   10   35 1
    37   13   36 1
    38   15   37 1
    39   16   38 1
    40   18   39 1
    41   20   40 1
    42   20   41 1
    43   22   42 1
    44   22   43 1
    45   22   44 1
@<TRIPOS>MOLECULE
ZINC00879763
 35 36 0 0 0
SMALL
NO_CHARGES


@<TRIPOS>ATOM
      1 C          -2.978     9.210     1.534  C    
      2 C          -2.576     7.793     0.996  C    
      3 C          -1.595     8.004    -0.203  C    
      4 C          -1.845     7.032     2.150  C    
      5 C          -3.747     7.011     0.550  C    
      6 O          -4.878     7.478     0.633  O    
      7 N          -3.569     5.795     0.044  N    
      8 C          -4.547     4.881    -0.485  C    
      9 C          -4.904     5.169    -1.988  C    
     10 Cl         -5.458     6.804    -2.349  Cl   
     11 Cl         -3.481     4.945    -3.009  Cl   
     12 Cl         -6.107     4.035    -2.596  Cl   
     13 N          -5.626     4.655     0.466  N    
     14 C          -5.489     3.909     1.591  C    
     15 N          -6.617     3.903     2.326  N    
     16 C          -7.494     4.668     1.665  C    
     17 C          -6.883     5.146     0.503  C    
     18 N          -7.567     5.980    -0.323  N    
     19 C          -8.841     6.351    -0.034  C    
     20 N          -9.445     5.887     1.095  N    
     21 C          -8.813     5.047     1.959  C    
     22 Cl         -9.611     4.507     3.350  Cl   
     23 H          -2.101     9.775     1.852  H    
     24 H          -3.651     9.122     2.389  H    
     25 H          -3.487     9.787     0.759  H    
     26 H          -2.095     8.525    -1.024  H    
     27 H          -1.222     7.050    -0.585  H    
     28 H          -0.731     8.601     0.098  H    
     29 H          -0.978     7.596     2.500  H    
     30 H          -1.493     6.051     1.820  H    
     31 H          -2.518     6.882     2.998  H    
     32 H          -2.654     5.465     0.043  H    
     33 H          -4.007     3.928    -0.517  H    
     34 H          -4.638     3.418     1.874  H    
     35 H          -9.344     6.985    -0.659  H    
@<TRIPOS>BOND
     1    1    2 1
     2    2    3 1
     3    2    4 1
     4    2    5 1
     5    5    6 2
     6    5    7 1
     7    7    8 1
     8    8    9 1
     9    8   13 1
    10    9   10 1
    11    9   11 1
    12    9   12 1
    13   13   17 1
    14   13   14 1
    15   14   15 2
    16   15   16 1
    17   16   21 ar
    18   16   17 ar
    19   17   18 ar
    20   18   19 ar
    21   19   20 ar
    22   20   21 ar
    23   21   22 1
    24    1   23 1
    25    1   24 1
    26    1   25 1
    27    3   26 1
    28    3   27 1
    29    3   28 1
    30    4   29 1
    31    4   30 1
    32    4   31 1
    33    7   32 1
    34    8   33 1
    35   14   34 1
    36   19   35 1
@<TRIPOS>MOLECULE
ZINC00882049
 41 43 0 0 0
SMALL
NO_CHARGES


@<TRIPOS>ATOM
      1 C           6.876   -10.271    -0.406  C    
      2 C           7.354    -8.980     0.302  C    
      3 N           6.331    -8.437     1.192  N    
      4 C           5.361    -7.624     0.643  C    
      5 N           4.254    -7.154     1.269  N    
      6 C           3.381    -6.362     0.589  C    
      7 C           3.778    -6.159    -0.744  C    
      8 S           5.243    -7.019    -0.971  S    
      9 C           2.224    -5.824     1.225  C    
     10 C           1.512    -4.720     0.686  C    
     11 C           0.389    -4.187     1.347  C    
     12 C          -0.046    -4.751     2.561  C    
     13 C           0.639    -5.847     3.113  C    
     14 C           1.763    -6.375     2.451  C    
     15 C           6.326    -8.800     2.497  C    
     16 O           7.010    -9.745     2.887  O    
     17 C           5.650    -8.148     3.525  C    
     18 C           5.882    -6.774     3.776  C    
     19 C           5.161    -6.098     4.777  C    
     20 C           4.195    -6.782     5.536  C    
     21 C           3.957    -8.158     5.314  C    
     22 C           4.693    -8.832     4.313  C    
     23 C           2.929    -8.862     6.116  C    
     24 H           6.639   -11.040     0.334  H    
     25 H           7.668   -10.648    -1.062  H    
     26 H           5.984   -10.078    -1.009  H    
     27 H           8.276    -9.211     0.850  H    
     28 H           7.660    -8.251    -0.456  H    
     29 H           3.296    -5.625    -1.467  H    
     30 H           1.813    -4.276    -0.185  H    
     31 H          -0.103    -3.382     0.954  H    
     32 H          -0.856    -4.359     3.046  H    
     33 H           0.330    -6.254     3.998  H    
     34 H           2.235    -7.180     2.873  H    
     35 H           6.574    -6.255     3.228  H    
     36 H           5.331    -5.104     4.941  H    
     37 H           3.668    -6.269     6.247  H    
     38 H           4.512    -9.828     4.141  H    
     39 H           3.198    -8.810     7.174  H    
     40 H           2.832    -9.915     5.841  H    
     41 H           1.957    -8.383     5.971  H    
@<TRIPOS>BOND
     1    1    2 1
     2    2    3 1
     3    3    4 1
     4    3   15 1
     5    4    8 1
     6    4    5 2
     7    5    6 1
     8    6    7 2
     9    6    9 1
    10    7    8 1
    11    9   14 ar
    12    9   10 ar
    13   10   11 ar
    14   11   12 ar
    15   12   13 ar
    16   13   14 ar
    17   15   16 2
    18   15   17 1
    19   17   22 ar
    20   17   18 ar
    21   18   19 ar
    22   19   20 ar
    23   20   21 ar
    24   21   22 ar
    25   21   23 1
    26    1   24 1
    27    1   25 1
    28    1   26 1
    29    2   27 1
    30    2   28 1
    31    7   29 1
    32   10   30 1
    33   11   31 1
    34   12   32 1
    35   13   33 1
    36   14   34 1
    37   18   35 1
    38   19   36 1
    39   20   37 1
    40   22   38 1
    41   23   39 1
    42   23   40 1
    43   23   41 1
@<TRIPOS>MOLECULE
ZINC00892882
 63 68 0 0 0
SMALL
NO_CHARGES


@<TRIPOS>ATOM
      1 C           2.521    -4.406     2.081  C    
      2 O           3.110    -4.138     0.796  O    
      3 C           3.471    -2.834     0.576  C    
      4 C           4.827    -2.562     0.311  C    
      5 C           5.254    -1.254     0.021  C    
      6 C           4.318    -0.203    -0.004  C    
      7 C           2.949    -0.458     0.253  C    
      8 C           2.531    -1.778     0.525  C    
      9 C           2.072     0.631     0.235  C    
     10 C           2.498     1.902     0.006  C    
     11 C           3.841     2.089    -0.299  C    
     12 O           4.298     3.180    -0.618  O    
     13 N           4.703     1.076    -0.286  N    
     14 C           1.565     3.050     0.104  C    
     15 C           0.662     2.982     1.293  C    
     16 N          -0.673     3.009     1.276  N    
     17 N          -1.066     2.928     2.469  N    
     18 N          -0.114     2.856     3.235  N    
     19 N           0.981     2.889     2.599  N    
     20 C           2.276     2.813     3.223  C    
     21 C           2.516     1.497     3.987  C    
     22 C           3.690     1.804     4.938  C    
     23 C           3.698     3.338     5.138  C    
     24 C           2.540     3.897     4.288  C    
     25 C           0.306     4.696    -1.338  C    
     26 C           0.031     5.057    -2.818  C    
     27 C          -0.640     3.966    -3.570  C    
     28 C          -1.274     4.255    -4.801  C    
     29 C          -1.945     3.248    -5.516  C    
     30 C          -1.983     1.939    -5.012  C    
     31 C          -1.337     1.632    -3.802  C    
     32 C          -0.647     2.634    -3.081  C    
     33 C           0.047     2.275    -1.815  C    
     34 N           0.936     3.342    -1.241  N    
     35 H           3.106    -3.977     2.903  H    
     36 H           2.481    -5.489     2.217  H    
     37 H           1.497    -4.018     2.120  H    
     38 H           5.511    -3.323     0.320  H    
     39 H           6.241    -1.074    -0.176  H    
     40 H           1.542    -1.973     0.688  H    
     41 H           1.109     0.462     0.427  H    
     42 H           5.632     1.248    -0.503  H    
     43 H           2.169     3.934     0.338  H    
     44 H           3.061     2.910     2.470  H    
     45 H           1.633     1.228     4.571  H    
     46 H           2.752     0.673     3.310  H    
     47 H           3.564     1.280     5.891  H    
     48 H           4.633     1.478     4.487  H    
     49 H           3.571     3.602     6.193  H    
     50 H           4.649     3.754     4.791  H    
     51 H           2.806     4.850     3.828  H    
     52 H           1.660     4.044     4.917  H    
     53 H           0.967     5.465    -0.929  H    
     54 H          -0.632     4.729    -0.777  H    
     55 H          -0.593     5.955    -2.834  H    
     56 H           0.975     5.290    -3.317  H    
     57 H          -1.260     5.206    -5.181  H    
     58 H          -2.411     3.471    -6.399  H    
     59 H          -2.482     1.208    -5.527  H    
     60 H          -1.374     0.672    -3.452  H    
     61 H          -0.712     1.972    -1.093  H    
     62 H           0.671     1.408    -2.032  H    
     63 H           1.730     3.387    -1.884  H    
@<TRIPOS>BOND
     1    1    2 1
     2    2    3 1
     3    3    8 ar
     4    3    4 ar
     5    4    5 ar
     6    5    6 ar
     7    6   13 1
     8    6    7 ar
     9    7    8 ar
    10    7    9 1
    11    9   10 2
    12   10   11 1
    13   10   14 1
    14   11   12 2
    15   11   13 1
    16   14   15 1
    17   14   34 1
    18   15   19 1
    19   15   16 2
    20   16   17 1
    21   17   18 2
    22   18   19 1
    23   19   20 1
    24   20   24 1
    25   20   21 1
    26   21   22 1
    27   22   23 1
    28   23   24 1
    29   25   26 1
    30   25   34 1
    31   26   27 1
    32   27   32 ar
    33   27   28 ar
    34   28   29 ar
    35   29   30 ar
    36   30   31 ar
    37   31   32 ar
    38   32   33 1
    39   33   34 1
    40    1   35 1
    41    1   36 1
    42    1   37 1
    43    4   38 1
    44    5   39 1
    45    8   40 1
    46    9   41 1
    47   13   42 1
    48   14   43 1
    49   20   44 1
    50   21   45 1
    51   21   46 1
    52   22   47 1
    53   22   48 1
    54   23   49 1
    55   23   50 1
    56   24   51 1
    57   24   52 1
    58   25   53 1
    59   25   54 1
    60   26   55 1
    61   26   56 1
    62   28   57 1
    63   29   58 1
    64   30   59 1
    65   31   60 1
    66   33   61 1
    67   33   62 1
    68   34   63 1
@<TRIPOS>MOLECULE
ZINC00893537
 59 62 0 0 0
SMALL
NO_CHARGES


@<TRIPOS>ATOM
      1 C           6.496   -11.316    -4.479  C    
      2 C           5.823   -10.243    -5.092  C    
      3 C           5.995    -8.934    -4.606  C    
      4 C           6.837    -8.679    -3.497  C    
      5 C           7.510    -9.768    -2.892  C    
      6 C           7.342   -11.077    -3.379  C    
      7 C           7.025    -7.297    -2.972  C    
      8 C           7.062    -5.915    -0.908  C    
      9 C           6.616    -5.824     0.575  C    
     10 C           5.065    -5.857     0.707  C    
     11 C           4.505    -7.112    -0.032  C    
     12 C           5.006    -7.172    -1.499  C    
     13 C           3.213    -5.162     2.266  C    
     14 C           2.893    -4.772     3.731  C    
     15 C           4.529    -6.440     4.527  C    
     16 C           4.837    -6.836     3.062  C    
     17 C           2.746    -5.592     6.069  C    
     18 C           2.646    -6.795     6.934  C    
     19 C           1.719    -7.828     6.662  C    
     20 C           1.672    -8.951     7.510  C    
     21 C           2.538    -9.034     8.615  C    
     22 C           3.442    -7.981     8.853  C    
     23 N           3.464    -6.913     8.016  N    
     24 N           6.505    -7.134    -1.576  N    
     25 N           4.616    -5.675     2.138  N    
     26 N           3.131    -5.919     4.661  N    
     27 H           6.370   -12.270    -4.832  H    
     28 H           5.208   -10.417    -5.890  H    
     29 H           5.495    -8.167    -5.065  H    
     30 H           8.133    -9.613    -2.093  H    
     31 H           7.833   -11.859    -2.936  H    
     32 H           8.100    -7.100    -3.009  H    
     33 H           6.551    -6.560    -3.626  H    
     34 H           6.750    -5.011    -1.439  H    
     35 H           8.155    -5.948    -0.918  H    
     36 H           7.063    -6.659     1.118  H    
     37 H           6.998    -4.894     1.009  H    
     38 H           4.718    -4.982     0.146  H    
     39 H           4.825    -8.025     0.476  H    
     40 H           3.411    -7.091    -0.033  H    
     41 H           4.624    -8.097    -1.941  H    
     42 H           4.575    -6.336    -2.059  H    
     43 H           2.495    -5.918     1.934  H    
     44 H           3.075    -4.269     1.648  H    
     45 H           3.510    -3.914     4.017  H    
     46 H           1.844    -4.465     3.774  H    
     47 H           4.668    -7.329     5.151  H    
     48 H           5.252    -5.685     4.853  H    
     49 H           5.874    -7.176     3.023  H    
     50 H           4.196    -7.679     2.788  H    
     51 H           1.766    -5.110     6.097  H    
     52 H           3.464    -4.885     6.495  H    
     53 H           1.088    -7.771     5.861  H    
     54 H           1.011    -9.708     7.323  H    
     55 H           2.514    -9.846     9.236  H    
     56 H           4.081    -8.017     9.649  H    
     57 H           6.846    -7.934    -1.040  H    
     58 H           5.203    -4.922     2.505  H    
     59 H           2.509    -6.669     4.352  H    
@<TRIPOS>BOND
     1    1    6 ar
     2    1    2 ar
     3    2    3 ar
     4    3    4 ar
     5    4    5 ar
     6    4    7 1
     7    5    6 ar
     8    7   24 1
     9    8    9 1
    10    8   24 1
    11    9   10 1
    12   10   11 1
    13   10   25 1
    14   11   12 1
    15   12   24 1
    16   13   14 1
    17   13   25 1
    18   14   26 1
    19   15   16 1
    20   15   26 1
    21   16   25 1
    22   17   18 1
    23   17   26 1
    24   18   23 ar
    25   18   19 ar
    26   19   20 ar
    27   20   21 ar
    28   21   22 ar
    29   22   23 ar
    30    1   27 1
    31    2   28 1
    32    3   29 1
    33    5   30 1
    34    6   31 1
    35    7   32 1
    36    7   33 1
    37    8   34 1
    38    8   35 1
    39    9   36 1
    40    9   37 1
    41   10   38 1
    42   11   39 1
    43   11   40 1
    44   12   41 1
    45   12   42 1
    46   13   43 1
    47   13   44 1
    48   14   45 1
    49   14   46 1
    50   15   47 1
    51   15   48 1
    52   16   49 1
    53   16   50 1
    54   17   51 1
    55   17   52 1
    56   19   53 1
    57   20   54 1
    58   21   55 1
    59   22   56 1
    60   24   57 1
    61   25   58 1
    62   26   59 1
@<TRIPOS>MOLECULE
ZINC00911949
 51 54 0 0 0
SMALL
NO_CHARGES


@<TRIPOS>ATOM
      1 C           4.617    -2.178    -2.998  C    
      2 C           5.370    -2.127    -1.809  C    
      3 C           5.114    -1.113    -0.867  C    
      4 C           4.113    -0.167    -1.129  C    
      5 C           3.347    -0.201    -2.311  C    
      6 C           3.595    -1.226    -3.256  C    
      7 C           2.831    -1.327    -4.405  C    
      8 O           3.437    -1.026    -5.433  O    
      9 N           1.550    -1.746    -4.454  N    
     10 C           0.833    -2.253    -3.291  C    
     11 C           0.420    -3.732    -3.511  C    
     12 C          -0.364    -3.902    -4.838  C    
     13 C           0.400    -3.265    -6.026  C    
     14 C           0.802    -1.802    -5.700  C    
     15 S           4.081     0.890     0.219  S    
     16 C           5.349     0.091     1.077  C    
     17 N           5.761    -0.955     0.319  N    
     18 N           5.910     0.361     2.282  N    
     19 C           5.626     1.338     3.136  C    
     20 O           4.743     2.155     2.899  O    
     21 C           6.392     1.415     4.382  C    
     22 C           6.065     0.208     5.316  C    
     23 C           6.910     0.227     6.618  C    
     24 C           6.768     1.569     7.380  C    
     25 C           7.080     2.781     6.464  C    
     26 C           6.223     2.755     5.171  C    
     27 H           4.803    -2.930    -3.670  H    
     28 H           6.093    -2.825    -1.625  H    
     29 H           2.622     0.503    -2.469  H    
     30 H           1.406    -2.212    -2.365  H    
     31 H          -0.063    -1.644    -3.133  H    
     32 H           1.321    -4.348    -3.546  H    
     33 H          -0.194    -4.071    -2.676  H    
     34 H          -0.522    -4.964    -5.032  H    
     35 H          -1.344    -3.424    -4.741  H    
     36 H           1.303    -3.846    -6.229  H    
     37 H          -0.227    -3.287    -6.920  H    
     38 H          -0.104    -1.195    -5.600  H    
     39 H           1.342    -1.402    -6.561  H    
     40 H           6.620    -0.244     2.561  H    
     41 H           7.451     1.348     4.105  H    
     42 H           5.002     0.225     5.580  H    
     43 H           6.263    -0.735     4.795  H    
     44 H           6.592    -0.594     7.266  H    
     45 H           7.962     0.064     6.368  H    
     46 H           5.751     1.660     7.764  H    
     47 H           7.452     1.575     8.231  H    
     48 H           6.884     3.708     7.010  H    
     49 H           8.140     2.769     6.197  H    
     50 H           6.520     3.595     4.535  H    
     51 H           5.172     2.897     5.441  H    
@<TRIPOS>BOND
     1    1    6 ar
     2    1    2 ar
     3    2    3 ar
     4    3   17 1
     5    3    4 ar
     6    4    5 ar
     7    4   15 1
     8    5    6 ar
     9    6    7 1
    10    7    8 2
    11    7    9 1
    12    9   14 1
    13    9   10 1
    14   10   11 1
    15   11   12 1
    16   12   13 1
    17   13   14 1
    18   15   16 1
    19   16   17 2
    20   16   18 1
    21   18   19 1
    22   19   20 2
    23   19   21 1
    24   21   26 1
    25   21   22 1
    26   22   23 1
    27   23   24 1
    28   24   25 1
    29   25   26 1
    30    1   27 1
    31    2   28 1
    32    5   29 1
    33   10   30 1
    34   10   31 1
    35   11   32 1
    36   11   33 1
    37   12   34 1
    38   12   35 1
    39   13   36 1
    40   13   37 1
    41   14   38 1
    42   14   39 1
    43   18   40 1
    44   21   41 1
    45   22   42 1
    46   22   43 1
    47   23   44 1
    48   23   45 1
    49   24   46 1
    50   24   47 1
    51   25   48 1
    52   25   49 1
    53   26   50 1
    54   26   51 1
@<TRIPOS>MOLECULE
ZINC00912683
 63 67 0 0 0
SMALL
NO_CHARGES


@<TRIPOS>ATOM
      1 C           3.831     0.543   -11.182  C    
      2 C           2.325     0.269   -10.905  C    
      3 C           2.019    -1.253   -10.855  C    
      4 C           1.837     0.965    -9.671  C    
      5 C           0.749     1.862    -9.748  C    
      6 C           0.276     2.521    -8.599  C    
      7 C           0.886     2.323    -7.338  C    
      8 C           1.973     1.420    -7.267  C    
      9 C           2.433     0.737    -8.408  C    
     10 N           0.433     2.997    -6.215  N    
     11 C           0.044     4.264    -6.177  C    
     12 O           0.074     5.059    -7.105  O    
     13 C          -0.445     4.663    -4.889  C    
     14 C          -0.126     3.429    -4.012  C    
     15 C           0.304     2.472    -5.006  C    
     16 O           0.482     1.298    -4.712  O    
     17 C           0.882     2.692    -1.830  C    
     18 C           1.735     3.178    -0.630  C    
     19 C           3.108     4.544    -2.171  C    
     20 C           2.265     4.032    -3.363  C    
     21 C           3.972     3.978     0.107  C    
     22 C           5.413     4.147    -0.234  C    
     23 C           6.190     3.025    -0.622  C    
     24 C           7.554     3.170    -0.955  C    
     25 C           8.131     4.450    -0.904  C    
     26 C           7.382     5.556    -0.531  C    
     27 C           6.025     5.425    -0.189  C    
     28 O           8.119     6.681    -0.541  O    
     29 C           9.339     6.222    -1.155  C    
     30 O           9.407     4.782    -1.178  O    
     31 N           0.868     3.721    -2.916  N    
     32 N           3.125     3.547    -1.053  N    
     33 H           4.460     0.060   -10.428  H    
     34 H           4.031     1.617   -11.168  H    
     35 H           4.111     0.154   -12.163  H    
     36 H           1.788     0.658   -11.779  H    
     37 H           2.307    -1.726   -11.796  H    
     38 H           0.949    -1.416   -10.701  H    
     39 H           2.568    -1.734   -10.039  H    
     40 H           0.283     2.040   -10.641  H    
     41 H          -0.531     3.137    -8.692  H    
     42 H           2.454     1.258    -6.379  H    
     43 H           3.213     0.089    -8.311  H    
     44 H           0.056     5.571    -4.540  H    
     45 H          -1.521     4.849    -4.946  H    
     46 H          -1.069     3.082    -3.573  H    
     47 H           1.291     1.748    -2.202  H    
     48 H          -0.133     2.504    -1.467  H    
     49 H           1.237     4.034    -0.167  H    
     50 H           1.775     2.368     0.107  H    
     51 H           4.120     4.727    -2.536  H    
     52 H           2.693     5.500    -1.825  H    
     53 H           2.267     4.806    -4.134  H    
     54 H           2.745     3.143    -3.781  H    
     55 H           3.917     3.225     0.901  H    
     56 H           3.563     4.904     0.528  H    
     57 H           5.769     2.092    -0.659  H    
     58 H           8.115     2.361    -1.229  H    
     59 H           5.495     6.258     0.078  H    
     60 H           9.383     6.597    -2.183  H    
     61 H          10.194     6.619    -0.606  H    
     62 H           0.526     4.577    -2.469  H    
     63 H           3.548     2.696    -1.424  H    
@<TRIPOS>BOND
     1    1    2 1
     2    2    3 1
     3    2    4 1
     4    4    9 ar
     5    4    5 ar
     6    5    6 ar
     7    6    7 ar
     8    7    8 ar
     9    7   10 1
    10    8    9 ar
    11   10   15 1
    12   10   11 1
    13   11   12 2
    14   11   13 1
    15   13   14 1
    16   14   15 1
    17   14   31 1
    18   15   16 2
    19   17   18 1
    20   17   31 1
    21   18   32 1
    22   19   20 1
    23   19   32 1
    24   20   31 1
    25   21   22 1
    26   21   32 1
    27   22   27 ar
    28   22   23 ar
    29   23   24 ar
    30   24   25 ar
    31   25   30 1
    32   25   26 ar
    33   26   27 ar
    34   26   28 1
    35   28   29 1
    36   29   30 1
    37    1   33 1
    38    1   34 1
    39    1   35 1
    40    2   36 1
    41    3   37 1
    42    3   38 1
    43    3   39 1
    44    5   40 1
    45    6   41 1
    46    8   42 1
    47    9   43 1
    48   13   44 1
    49   13   45 1
    50   14   46 1
    51   17   47 1
    52   17   48 1
    53   18   49 1
    54   18   50 1
    55   19   51 1
    56   19   52 1
    57   20   53 1
    58   20   54 1
    59   21   55 1
    60   21   56 1
    61   23   57 1
    62   24   58 1
    63   27   59 1
    64   29   60 1
    65   29   61 1
    66   31   62 1
    67   32   63 1
@<TRIPOS>MOLECULE
ZINC00937971
 48 51 0 0 0
SMALL
NO_CHARGES


@<TRIPOS>ATOM
      1 C           1.787     0.329    -4.228  C    
      2 C           1.716    -0.773    -3.250  C    
      3 C           1.102    -0.835    -1.984  C    
      4 C           1.381    -2.119    -1.496  C    
      5 C           2.162    -2.758    -2.459  C    
      6 O           2.355    -1.937    -3.511  O    
      7 C           2.624    -4.047    -2.300  C    
      8 O           3.296    -4.538    -3.196  O    
      9 C           2.301    -4.748    -1.128  C    
     10 C           2.778    -6.063    -0.906  C    
     11 C           2.453    -6.761     0.267  C    
     12 C           1.634    -6.157     1.237  C    
     13 C           1.145    -4.855     1.036  C    
     14 C           1.471    -4.128    -0.137  C    
     15 C           0.996    -2.815    -0.347  C    
     16 O           0.192    -2.313     0.428  O    
     17 C           0.364     0.172    -1.374  C    
     18 O          -0.386     0.854    -2.064  O    
     19 N           0.492     0.421    -0.075  N    
     20 C          -0.174     1.447     0.674  C    
     21 C          -1.702     1.212     0.847  C    
     22 C          -3.761     1.720     2.142  C    
     23 C          -4.454     2.706     3.116  C    
     24 O          -4.429     4.045     2.589  O    
     25 C          -3.098     4.526     2.325  C    
     26 C          -2.356     3.595     1.332  C    
     27 N          -2.373     2.167     1.795  N    
     28 H           2.833     0.541    -4.462  H    
     29 H           1.330     1.248    -3.855  H    
     30 H           1.274     0.029    -5.144  H    
     31 H           3.369    -6.533    -1.597  H    
     32 H           2.804    -7.710     0.416  H    
     33 H           1.391    -6.671     2.091  H    
     34 H           0.549    -4.446     1.763  H    
     35 H           1.146    -0.112     0.412  H    
     36 H           0.284     1.473     1.665  H    
     37 H           0.013     2.412     0.193  H    
     38 H          -2.186     1.268    -0.132  H    
     39 H          -1.819     0.189     1.218  H    
     40 H          -3.730     0.738     2.627  H    
     41 H          -4.370     1.635     1.238  H    
     42 H          -5.496     2.414     3.250  H    
     43 H          -3.967     2.676     4.095  H    
     44 H          -3.174     5.528     1.898  H    
     45 H          -2.533     4.601     3.260  H    
     46 H          -2.824     3.683     0.347  H    
     47 H          -1.331     3.967     1.258  H    
     48 H          -1.841     2.138     2.667  H    
@<TRIPOS>BOND
     1    1    2 1
     2    2    6 1
     3    2    3 2
     4    3    4 1
     5    3   17 1
     6    4   15 1
     7    4    5 2
     8    5    6 1
     9    5    7 1
    10    7    8 2
    11    7    9 1
    12    9   14 ar
    13    9   10 ar
    14   10   11 ar
    15   11   12 ar
    16   12   13 ar
    17   13   14 ar
    18   14   15 1
    19   15   16 2
    20   17   18 2
    21   17   19 1
    22   19   20 1
    23   20   21 1
    24   21   27 1
    25   22   23 1
    26   22   27 1
    27   23   24 1
    28   24   25 1
    29   25   26 1
    30   26   27 1
    31    1   28 1
    32    1   29 1
    33    1   30 1
    34   10   31 1
    35   11   32 1
    36   12   33 1
    37   13   34 1
    38   19   35 1
    39   20   36 1
    40   20   37 1
    41   21   38 1
    42   21   39 1
    43   22   40 1
    44   22   41 1
    45   23   42 1
    46   23   43 1
    47   25   44 1
    48   25   45 1
    49   26   46 1
    50   26   47 1
    51   27   48 1
@<TRIPOS>MOLECULE
ZINC00938521
 47 49 0 0 0
SMALL
NO_CHARGES


@<TRIPOS>ATOM
      1 C           5.261    -2.138    -8.252  C    
      2 N           6.206    -1.740    -7.266  N    
      3 C           7.126    -0.677    -7.545  C    
      4 C           8.257    -1.137    -8.524  C    
      5 C           9.210     0.020    -8.930  C    
      6 C           9.827     0.715    -7.692  C    
      7 C           8.725     1.205    -6.720  C    
      8 C           7.780     0.045    -6.309  C    
      9 C           6.114    -2.297    -6.082  C    
     10 C           6.785    -3.354    -5.626  C    
     11 C           6.348    -3.608    -4.386  C    
     12 O           6.737    -4.532    -3.681  O    
     13 N           5.395    -2.745    -4.084  N    
     14 C           5.247    -1.941    -5.121  C    
     15 O           4.479    -0.989    -5.199  O    
     16 C           4.667    -2.704    -2.922  C    
     17 C           5.313    -2.585    -1.668  C    
     18 C           4.559    -2.525    -0.481  C    
     19 C           3.156    -2.591    -0.533  C    
     20 C           2.493    -2.707    -1.773  C    
     21 C           3.257    -2.779    -2.960  C    
     22 C           1.086    -2.765    -1.830  C    
     23 O           0.500    -3.799    -2.474  O    
     24 O           0.263    -1.781    -1.368  O    
     25 C           0.624    -0.527    -0.782  C    
     26 Cl          7.932    -4.236    -6.445  Cl   
     27 H           4.697    -1.268    -8.600  H    
     28 H           4.526    -2.872    -7.894  H    
     29 H           5.767    -2.591    -9.106  H    
     30 H           6.557     0.111    -8.056  H    
     31 H           8.840    -1.930    -8.052  H    
     32 H           7.823    -1.540    -9.441  H    
     33 H          10.011    -0.377    -9.561  H    
     34 H           8.655     0.756    -9.518  H    
     35 H          10.488     0.016    -7.171  H    
     36 H          10.429     1.569    -8.020  H    
     37 H           9.192     1.629    -5.826  H    
     38 H           8.148     1.999    -7.201  H    
     39 H           6.994     0.458    -5.671  H    
     40 H           8.346    -0.681    -5.716  H    
     41 H           6.334    -2.525    -1.614  H    
     42 H           5.034    -2.435     0.425  H    
     43 H           2.626    -2.566     0.345  H    
     44 H           2.783    -2.875    -3.860  H    
     45 H           1.164    -0.669     0.153  H    
     46 H          -0.284     0.036    -0.573  H    
     47 H           1.237     0.041    -1.480  H    
@<TRIPOS>BOND
     1    1    2 1
     2    2    3 1
     3    2    9 1
     4    3    8 1
     5    3    4 1
     6    4    5 1
     7    5    6 1
     8    6    7 1
     9    7    8 1
    10    9   14 1
    11    9   10 2
    12   10   11 1
    13   10   26 1
    14   11   12 2
    15   11   13 1
    16   13   14 1
    17   13   16 1
    18   14   15 2
    19   16   21 ar
    20   16   17 ar
    21   17   18 ar
    22   18   19 ar
    23   19   20 ar
    24   20   21 ar
    25   20   22 1
    26   22   23 2
    27   22   24 1
    28   24   25 1
    29    1   27 1
    30    1   28 1
    31    1   29 1
    32    3   30 1
    33    4   31 1
    34    4   32 1
    35    5   33 1
    36    5   34 1
    37    6   35 1
    38    6   36 1
    39    7   37 1
    40    7   38 1
    41    8   39 1
    42    8   40 1
    43   17   41 1
    44   18   42 1
    45   19   43 1
    46   21   44 1
    47   25   45 1
    48   25   46 1
    49   25   47 1
@<TRIPOS>MOLECULE
ZINC00940475
 45 48 0 0 0
SMALL
NO_CHARGES


@<TRIPOS>ATOM
      1 C           1.308    10.979     2.114  C    
      2 C           1.530     9.705     2.797  C    
      3 C           2.090     9.550     4.033  C    
      4 C           2.220     8.201     4.646  C    
      5 N           1.792     7.144     3.769  N    
      6 C           1.273     7.376     2.565  C    
      7 N           0.988     6.184     2.049  N    
      8 N           1.348     5.343     2.929  N    
      9 N           1.818     5.892     3.923  N    
     10 N           1.128     8.632     2.091  N    
     11 C           1.466     8.111     5.938  C    
     12 C           0.056     8.269     5.973  C    
     13 C          -0.646     8.214     7.195  C    
     14 C           0.049     7.979     8.397  C    
     15 C           1.450     7.817     8.373  C    
     16 C           2.151     7.890     7.156  C    
     17 Cl         -0.790     7.912     9.868  Cl   
     18 C           2.578    10.600     4.741  C    
     19 O           3.765    10.869     4.611  O    
     20 N           1.735    11.307     5.484  N    
     21 C           1.968    12.399     6.276  C    
     22 C           3.204    12.663     6.919  C    
     23 C           3.364    13.806     7.723  C    
     24 C           2.295    14.699     7.907  C    
     25 C           1.058    14.441     7.291  C    
     26 C           0.882    13.284     6.498  C    
     27 O          -0.316    13.063     5.866  O    
     28 C          -1.318    12.458     6.705  C    
     29 H           1.845    10.985     1.165  H    
     30 H           1.634    11.848     2.684  H    
     31 H           0.242    11.100     1.912  H    
     32 H           3.289     8.021     4.814  H    
     33 H           0.749     8.761     1.207  H    
     34 H          -0.462     8.426     5.104  H    
     35 H          -1.663     8.345     7.205  H    
     36 H           1.969     7.656     9.240  H    
     37 H           3.169     7.782     7.169  H    
     38 H           0.801    11.047     5.408  H    
     39 H           3.993    12.023     6.833  H    
     40 H           4.264    13.978     8.174  H    
     41 H           2.413    15.532     8.489  H    
     42 H           0.288    15.102     7.423  H    
     43 H          -0.948    11.571     7.254  H    
     44 H          -2.135    12.143     6.055  H    
     45 H          -1.709    13.198     7.422  H    
@<TRIPOS>BOND
     1    1    2 1
     2    2   10 1
     3    2    3 2
     4    3    4 1
     5    3   18 1
     6    4    5 1
     7    4   11 1
     8    5    9 1
     9    5    6 1
    10    6    7 2
    11    6   10 1
    12    7    8 1
    13    8    9 2
    14   11   16 ar
    15   11   12 ar
    16   12   13 ar
    17   13   14 ar
    18   14   15 ar
    19   14   17 1
    20   15   16 ar
    21   18   19 2
    22   18   20 1
    23   20   21 1
    24   21   26 ar
    25   21   22 ar
    26   22   23 ar
    27   23   24 ar
    28   24   25 ar
    29   25   26 ar
    30   26   27 1
    31   27   28 1
    32    1   29 1
    33    1   30 1
    34    1   31 1
    35    4   32 1
    36   10   33 1
    37   12   34 1
    38   13   35 1
    39   15   36 1
    40   16   37 1
    41   20   38 1
    42   22   39 1
    43   23   40 1
    44   24   41 1
    45   25   42 1
    46   28   43 1
    47   28   44 1
    48   28   45 1
@<TRIPOS>MOLECULE
ZINC00972494
 36 38 0 0 0
SMALL
NO_CHARGES


@<TRIPOS>ATOM
      1 C           2.554    -3.514    -6.792  C    
      2 C           3.919    -3.771    -6.556  C    
      3 C           4.699    -2.840    -5.844  C    
      4 C           4.124    -1.644    -5.370  C    
      5 C           2.739    -1.401    -5.581  C    
      6 C           1.965    -2.333    -6.301  C    
      7 O           2.149    -0.231    -5.156  O    
      8 C           2.862     0.501    -4.138  C    
      9 C           4.382     0.581    -4.483  C    
     10 O           4.898    -0.764    -4.643  O    
     11 C           5.211     1.292    -3.520  C    
     12 O           4.728     1.751    -2.489  O    
     13 N           6.499     1.453    -3.783  N    
     14 N           7.336     2.077    -2.989  N    
     15 C           8.619     2.285    -3.264  C    
     16 O           9.052     1.907    -4.349  O    
     17 C           9.476     2.927    -2.358  C    
     18 C           9.139     3.082    -0.984  C    
     19 C          10.018     3.711    -0.080  C    
     20 C          11.258     4.213    -0.527  C    
     21 C          11.613     4.077    -1.882  C    
     22 C          10.733     3.445    -2.783  C    
     23 Cl         12.319     4.962     0.562  Cl   
     24 H           1.991    -4.184    -7.324  H    
     25 H           4.343    -4.634    -6.907  H    
     26 H           5.689    -3.036    -5.670  H    
     27 H           0.973    -2.152    -6.473  H    
     28 H           2.431     1.506    -4.072  H    
     29 H           2.725    -0.002    -3.176  H    
     30 H           4.474     1.105    -5.441  H    
     31 H           6.843     1.087    -4.616  H    
     32 H           6.992     2.409    -2.144  H    
     33 H           8.259     2.714    -0.613  H    
     34 H           9.752     3.806     0.904  H    
     35 H          12.509     4.440    -2.221  H    
     36 H          11.031     3.363    -3.761  H    
@<TRIPOS>BOND
     1    1    6 ar
     2    1    2 ar
     3    2    3 ar
     4    3    4 ar
     5    4   10 1
     6    4    5 ar
     7    5    6 ar
     8    5    7 1
     9    7    8 1
    10    8    9 1
    11    9   10 1
    12    9   11 1
    13   11   12 2
    14   11   13 1
    15   13   14 1
    16   14   15 1
    17   15   16 2
    18   15   17 1
    19   17   22 ar
    20   17   18 ar
    21   18   19 ar
    22   19   20 ar
    23   20   21 ar
    24   20   23 1
    25   21   22 ar
    26    1   24 1
    27    2   25 1
    28    3   26 1
    29    6   27 1
    30    8   28 1
    31    8   29 1
    32    9   30 1
    33   13   31 1
    34   14   32 1
    35   18   33 1
    36   19   34 1
    37   21   35 1
    38   22   36 1
@<TRIPOS>MOLECULE
ZINC00975747
 42 44 0 0 0
SMALL
NO_CHARGES


@<TRIPOS>ATOM
      1 C           3.128    -2.725    -4.555  C    
      2 O           2.915    -3.128    -5.918  O    
      3 C           2.982    -4.483    -6.096  C    
      4 C           1.833    -5.282    -5.941  C    
      5 C           1.897    -6.667    -6.170  C    
      6 C           3.114    -7.286    -6.550  C    
      7 C           4.264    -6.472    -6.728  C    
      8 C           4.187    -5.080    -6.511  C    
      9 O           5.461    -7.001    -7.139  O    
     10 C           6.315    -7.389    -6.048  C    
     11 C           3.167    -8.648    -6.835  C    
     12 C           2.684    -9.664    -6.091  C    
     13 C           2.201    -9.647    -4.829  C    
     14 O           2.316    -8.688    -4.075  O    
     15 N           1.700   -10.805    -4.425  N    
     16 C           1.840   -11.737    -5.352  C    
     17 O           1.469   -12.898    -5.257  O    
     18 S           2.655   -11.236    -6.754  S    
     19 C           1.102   -11.024    -3.123  C    
     20 C          -0.169   -10.265    -2.963  C    
     21 C          -0.296    -9.235    -2.001  C    
     22 C          -1.500    -8.519    -1.873  C    
     23 C          -2.593    -8.824    -2.703  C    
     24 C          -2.482    -9.847    -3.661  C    
     25 C          -1.278   -10.563    -3.789  C    
     26 H           2.361    -3.135    -3.893  H    
     27 H           3.069    -1.637    -4.511  H    
     28 H           4.117    -3.027    -4.199  H    
     29 H           0.944    -4.852    -5.674  H    
     30 H           1.039    -7.218    -6.080  H    
     31 H           5.015    -4.497    -6.654  H    
     32 H           6.579    -6.531    -5.425  H    
     33 H           7.233    -7.800    -6.467  H    
     34 H           5.846    -8.159    -5.429  H    
     35 H           3.627    -8.889    -7.684  H    
     36 H           0.880   -12.080    -2.947  H    
     37 H           1.831   -10.740    -2.358  H    
     38 H           0.489    -8.994    -1.393  H    
     39 H          -1.580    -7.774    -1.177  H    
     40 H          -3.468    -8.302    -2.610  H    
     41 H          -3.278   -10.071    -4.264  H    
     42 H          -1.214   -11.304    -4.492  H    
@<TRIPOS>BOND
     1    1    2 1
     2    2    3 1
     3    3    8 ar
     4    3    4 ar
     5    4    5 ar
     6    5    6 ar
     7    6    7 ar
     8    6   11 1
     9    7    8 ar
    10    7    9 1
    11    9   10 1
    12   11   12 2
    13   12   18 1
    14   12   13 1
    15   13   14 2
    16   13   15 1
    17   15   16 1
    18   15   19 1
    19   16   17 2
    20   16   18 1
    21   19   20 1
    22   20   25 ar
    23   20   21 ar
    24   21   22 ar
    25   22   23 ar
    26   23   24 ar
    27   24   25 ar
    28    1   26 1
    29    1   27 1
    30    1   28 1
    31    4   29 1
    32    5   30 1
    33    8   31 1
    34   10   32 1
    35   10   33 1
    36   10   34 1
    37   11   35 1
    38   19   36 1
    39   19   37 1
    40   21   38 1
    41   22   39 1
    42   23   40 1
    43   24   41 1
    44   25   42 1
@<TRIPOS>MOLECULE
ZINC00985886
 56 59 0 0 0
SMALL
NO_CHARGES


@<TRIPOS>ATOM
      1 C           2.344    -4.587    -0.408  C    
      2 C           3.344    -4.158    -1.406  C    
      3 C           3.201    -4.475    -2.772  C    
      4 C           4.155    -4.039    -3.707  C    
      5 C           5.284    -3.291    -3.297  C    
      6 C           5.452    -2.976    -1.917  C    
      7 C           4.469    -3.413    -0.993  C    
      8 C           6.614    -2.185    -1.426  C    
      9 C           6.175    -2.829    -4.295  C    
     10 C           5.885    -1.942    -5.328  C    
     11 C           7.049    -1.825    -6.062  C    
     12 N           7.976    -2.578    -5.456  N    
     13 N           7.475    -3.168    -4.414  N    
     14 O           7.154    -1.043    -7.181  O    
     15 C           6.035    -0.403    -7.618  C    
     16 C           4.844    -0.411    -6.963  C    
     17 C           4.667    -1.173    -5.704  C    
     18 C           4.247    -0.307    -4.532  C    
     19 C           3.032    -0.567    -3.832  C    
     20 C           2.717     0.197    -2.685  C    
     21 C           3.550     1.241    -2.239  C    
     22 C           4.708     1.539    -2.974  C    
     23 C           5.083     0.763    -4.092  C    
     24 O           6.192     1.091    -4.847  O    
     25 C           7.446     1.275    -4.160  C    
     26 O           3.297     2.045    -1.154  O    
     27 C           2.550     1.516    -0.038  C    
     28 O           2.226    -1.587    -4.291  O    
     29 C           0.832    -1.693    -3.932  C    
     30 C           3.795     0.140    -7.472  C    
     31 N           2.862     0.630    -7.924  N    
     32 N           6.221     0.249    -8.717  N    
     33 H           2.821    -5.210     0.347  H    
     34 H           1.534    -5.159    -0.860  H    
     35 H           1.916    -3.711     0.076  H    
     36 H           2.398    -5.013    -3.102  H    
     37 H           4.025    -4.280    -4.694  H    
     38 H           4.564    -3.173    -0.001  H    
     39 H           7.543    -2.711    -1.635  H    
     40 H           6.567    -2.001    -0.350  H    
     41 H           6.630    -1.217    -1.926  H    
     42 H           8.895    -2.666    -5.755  H    
     43 H           3.921    -1.948    -5.918  H    
     44 H           1.863     0.004    -2.177  H    
     45 H           5.289     2.334    -2.695  H    
     46 H           7.464     2.239    -3.626  H    
     47 H           8.240     1.288    -4.912  H    
     48 H           7.654     0.460    -3.447  H    
     49 H           1.503     1.368    -0.311  H    
     50 H           2.589     2.236     0.782  H    
     51 H           2.976     0.561     0.312  H    
     52 H           0.728    -1.974    -2.878  H    
     53 H           0.380    -2.480    -4.540  H    
     54 H           0.299    -0.759    -4.121  H    
     55 H           5.524     0.736    -9.106  H    
     56 H           7.081     0.305    -9.084  H    
@<TRIPOS>BOND
     1    1    2 1
     2    2    7 ar
     3    2    3 ar
     4    3    4 ar
     5    4    5 ar
     6    5    6 ar
     7    5    9 1
     8    6    7 ar
     9    6    8 1
    10    9   13 2
    11    9   10 1
    12   10   17 1
    13   10   11 2
    14   11   12 1
    15   11   14 1
    16   12   13 1
    17   14   15 1
    18   15   16 2
    19   15   32 1
    20   16   17 1
    21   16   30 1
    22   17   18 1
    23   18   23 ar
    24   18   19 ar
    25   19   20 ar
    26   19   28 1
    27   20   21 ar
    28   21   22 ar
    29   21   26 1
    30   22   23 ar
    31   23   24 1
    32   24   25 1
    33   26   27 1
    34   28   29 1
    35   30   31 3
    36    1   33 1
    37    1   34 1
    38    1   35 1
    39    3   36 1
    40    4   37 1
    41    7   38 1
    42    8   39 1
    43    8   40 1
    44    8   41 1
    45   12   42 1
    46   17   43 1
    47   20   44 1
    48   22   45 1
    49   25   46 1
    50   25   47 1
    51   25   48 1
    52   27   49 1
    53   27   50 1
    54   27   51 1
    55   29   52 1
    56   29   53 1
    57   29   54 1
    58   32   55 1
    59   32   56 1
@<TRIPOS>MOLECULE
ZINC00986370
 60 63 0 0 0
SMALL
NO_CHARGES


@<TRIPOS>ATOM
      1 C           2.346    -0.691     0.933  C    
      2 C           3.795    -0.557     0.376  C    
      3 C           4.798    -0.128     1.484  C    
      4 C           4.216    -1.806    -0.339  C    
      5 C           4.345    -1.820    -1.747  C    
      6 C           4.737    -2.987    -2.428  C    
      7 C           5.024    -4.177    -1.720  C    
      8 C           4.891    -4.172    -0.312  C    
      9 C           4.476    -3.012     0.367  C    
     10 N           5.420    -5.311    -2.395  N    
     11 C           6.408    -5.351    -3.267  C    
     12 O           7.123    -4.405    -3.575  O    
     13 C           6.567    -6.649    -3.847  C    
     14 C           5.544    -7.536    -3.083  C    
     15 C           4.895    -6.520    -2.268  C    
     16 O           4.037    -6.787    -1.437  O    
     17 C           3.576    -9.125    -3.291  C    
     18 C           2.716    -9.964    -4.267  C    
     19 N           3.544   -10.823    -5.086  N    
     20 C           4.584   -10.140    -5.825  C    
     21 C           5.469    -9.322    -4.848  C    
     22 C           3.394   -12.190    -5.116  C    
     23 C           3.178   -12.901    -3.904  C    
     24 C           3.020   -14.298    -3.884  C    
     25 C           3.046   -15.020    -5.086  C    
     26 C           3.234   -14.341    -6.301  C    
     27 C           3.450   -12.941    -6.327  C    
     28 O           3.485   -12.285    -7.537  O    
     29 C           4.536   -12.652    -8.446  C    
     30 N           4.670    -8.370    -3.995  N    
     31 H           2.283    -1.484     1.686  H    
     32 H           1.649    -0.926     0.122  H    
     33 H           2.026     0.247     1.390  H    
     34 H           3.771     0.278    -0.339  H    
     35 H           4.536     0.860     1.872  H    
     36 H           5.814    -0.078     1.074  H    
     37 H           4.789    -0.838     2.315  H    
     38 H           4.150    -0.976    -2.296  H    
     39 H           4.808    -2.972    -3.449  H    
     40 H           5.105    -5.017     0.231  H    
     41 H           4.377    -3.045     1.385  H    
     42 H           6.339    -6.574    -4.909  H    
     43 H           7.586    -7.018    -3.713  H    
     44 H           6.085    -8.203    -2.402  H    
     45 H           2.886    -8.436    -2.804  H    
     46 H           3.995    -9.789    -2.526  H    
     47 H           1.956   -10.508    -3.698  H    
     48 H           2.173    -9.280    -4.928  H    
     49 H           5.249   -10.829    -6.351  H    
     50 H           4.131    -9.473    -6.566  H    
     51 H           6.030   -10.018    -4.212  H    
     52 H           6.192    -8.784    -5.464  H    
     53 H           3.180   -12.411    -3.007  H    
     54 H           2.886   -14.789    -2.993  H    
     55 H           2.906   -16.033    -5.080  H    
     56 H           3.198   -14.876    -7.171  H    
     57 H           5.516   -12.637    -7.964  H    
     58 H           4.544   -11.933    -9.264  H    
     59 H           4.362   -13.642    -8.869  H    
     60 H           4.206    -7.718    -4.634  H    
@<TRIPOS>BOND
     1    1    2 1
     2    2    3 1
     3    2    4 1
     4    4    9 ar
     5    4    5 ar
     6    5    6 ar
     7    6    7 ar
     8    7    8 ar
     9    7   10 1
    10    8    9 ar
    11   10   15 1
    12   10   11 1
    13   11   12 2
    14   11   13 1
    15   13   14 1
    16   14   15 1
    17   14   30 1
    18   15   16 2
    19   17   18 1
    20   17   30 1
    21   18   19 1
    22   19   20 1
    23   19   22 1
    24   20   21 1
    25   21   30 1
    26   22   27 ar
    27   22   23 ar
    28   23   24 ar
    29   24   25 ar
    30   25   26 ar
    31   26   27 ar
    32   27   28 1
    33   28   29 1
    34    1   31 1
    35    1   32 1
    36    1   33 1
    37    2   34 1
    38    3   35 1
    39    3   36 1
    40    3   37 1
    41    5   38 1
    42    6   39 1
    43    8   40 1
    44    9   41 1
    45   13   42 1
    46   13   43 1
    47   14   44 1
    48   17   45 1
    49   17   46 1
    50   18   47 1
    51   18   48 1
    52   20   49 1
    53   20   50 1
    54   21   51 1
    55   21   52 1
    56   23   53 1
    57   24   54 1
    58   25   55 1
    59   26   56 1
    60   29   57 1
    61   29   58 1
    62   29   59 1
    63   30   60 1
@<TRIPOS>MOLECULE
ZINC01110360
 43 46 0 0 0
SMALL
NO_CHARGES


@<TRIPOS>ATOM
      1 C           2.468    -5.105    -0.681  C    
      2 C           2.400    -3.707    -0.581  C    
      3 C           3.056    -2.900    -1.527  C    
      4 C           3.796    -3.471    -2.598  C    
      5 C           3.863    -4.895    -2.688  C    
      6 C           3.193    -5.690    -1.731  C    
      7 N           4.585    -5.452    -3.730  N    
      8 C           5.129    -4.683    -4.683  C    
      9 O           5.702    -5.229    -5.619  O    
     10 C           5.089    -3.304    -4.591  C    
     11 N           4.439    -2.728    -3.567  N    
     12 O           4.395    -1.404    -3.554  O    
     13 C           5.735    -2.529    -5.562  C    
     14 C           5.251    -2.483    -6.890  C    
     15 C           5.885    -1.680    -7.859  C    
     16 C           7.013    -0.914    -7.511  C    
     17 C           7.503    -0.950    -6.193  C    
     18 C           6.868    -1.750    -5.224  C    
     19 Cl          7.775     0.048    -8.675  Cl   
     20 O           4.657    -6.777    -3.846  O    
     21 C           5.850    -7.345    -3.265  C    
     22 C           5.763    -8.826    -3.359  C    
     23 C           6.141    -9.505    -4.548  C    
     24 C           6.053   -10.911    -4.632  C    
     25 C           5.572   -11.654    -3.542  C    
     26 C           5.175   -10.997    -2.366  C    
     27 C           5.267    -9.595    -2.272  C    
     28 F           4.870    -9.034    -1.160  F    
     29 F           6.581    -8.857    -5.594  F    
     30 H           1.989    -5.691    -0.000  H    
     31 H           1.866    -3.279     0.178  H    
     32 H           2.970    -1.886    -1.417  H    
     33 H           3.220    -6.711    -1.789  H    
     34 H           3.952    -1.099    -2.744  H    
     35 H           4.423    -3.022    -7.158  H    
     36 H           5.515    -1.654    -8.813  H    
     37 H           8.322    -0.391    -5.930  H    
     38 H           7.239    -1.762    -4.269  H    
     39 H           6.743    -6.990    -3.789  H    
     40 H           5.952    -7.031    -2.220  H    
     41 H           6.338   -11.397    -5.488  H    
     42 H           5.505   -12.673    -3.605  H    
     43 H           4.817   -11.543    -1.577  H    
@<TRIPOS>BOND
     1    1    6 ar
     2    1    2 ar
     3    2    3 ar
     4    3    4 ar
     5    4   11 1
     6    4    5 ar
     7    5    6 ar
     8    5    7 1
     9    7    8 1
    10    7   20 1
    11    8    9 2
    12    8   10 1
    13   10   11 2
    14   10   13 1
    15   11   12 1
    16   13   18 ar
    17   13   14 ar
    18   14   15 ar
    19   15   16 ar
    20   16   17 ar
    21   16   19 1
    22   17   18 ar
    23   20   21 1
    24   21   22 1
    25   22   27 ar
    26   22   23 ar
    27   23   24 ar
    28   23   29 1
    29   24   25 ar
    30   25   26 ar
    31   26   27 ar
    32   27   28 1
    33    1   30 1
    34    2   31 1
    35    3   32 1
    36    6   33 1
    37   12   34 1
    38   14   35 1
    39   15   36 1
    40   17   37 1
    41   18   38 1
    42   21   39 1
    43   21   40 1
    44   24   41 1
    45   25   42 1
    46   26   43 1
@<TRIPOS>MOLECULE
ZINC00995079
 52 54 0 0 0
SMALL
NO_CHARGES


@<TRIPOS>ATOM
      1 C           1.203   -10.525    -1.426  C    
      2 C           2.528   -10.067    -1.931  C    
      3 C           3.689   -10.589    -1.317  C    
      4 C           4.964   -10.207    -1.748  C    
      5 C           5.098    -9.260    -2.770  C    
      6 C           3.967    -8.677    -3.397  C    
      7 C           2.665    -9.135    -3.009  C    
      8 C           1.446    -8.746    -3.782  C    
      9 N           4.181    -7.650    -4.287  N    
     10 C           5.214    -7.697    -5.308  C    
     11 C           6.254    -6.564    -5.097  C    
     12 N           5.566    -5.285    -4.980  N    
     13 C           4.562    -5.246    -3.926  C    
     14 C           3.513    -6.370    -4.137  C    
     15 C           5.868    -4.232    -5.767  C    
     16 O           6.863    -4.261    -6.483  O    
     17 C           5.120    -3.063    -5.880  C    
     18 C           3.761    -3.117    -6.269  C    
     19 C           3.001    -1.939    -6.414  C    
     20 C           3.613    -0.688    -6.204  C    
     21 C           4.964    -0.611    -5.815  C    
     22 C           5.716    -1.795    -5.675  C    
     23 O           5.556     0.610    -5.643  O    
     24 C           5.501     1.081    -4.285  C    
     25 O           1.701    -2.014    -6.829  O    
     26 C           0.760    -2.039    -5.741  C    
     27 H           0.600    -9.662    -1.137  H    
     28 H           1.285   -11.176    -0.554  H    
     29 H           0.678   -11.083    -2.202  H    
     30 H           3.620   -11.265    -0.552  H    
     31 H           5.796   -10.593    -1.294  H    
     32 H           6.044    -8.951    -3.005  H    
     33 H           0.885    -9.634    -4.074  H    
     34 H           1.673    -8.225    -4.709  H    
     35 H           0.807    -8.107    -3.171  H    
     36 H           5.728    -8.661    -5.348  H    
     37 H           4.739    -7.559    -6.283  H    
     38 H           6.817    -6.754    -4.179  H    
     39 H           6.967    -6.608    -5.924  H    
     40 H           5.060    -5.408    -2.965  H    
     41 H           4.042    -4.290    -3.839  H    
     42 H           2.932    -6.152    -5.036  H    
     43 H           2.830    -6.349    -3.283  H    
     44 H           3.316    -4.018    -6.466  H    
     45 H           3.073     0.171    -6.336  H    
     46 H           6.703    -1.726    -5.413  H    
     47 H           4.471     1.165    -3.930  H    
     48 H           5.954     2.071    -4.250  H    
     49 H           6.065     0.424    -3.618  H    
     50 H           0.933    -2.896    -5.085  H    
     51 H          -0.242    -2.126    -6.162  H    
     52 H           0.804    -1.114    -5.159  H    
@<TRIPOS>BOND
     1    1    2 1
     2    2    7 ar
     3    2    3 ar
     4    3    4 ar
     5    4    5 ar
     6    5    6 ar
     7    6    7 ar
     8    6    9 1
     9    7    8 1
    10    9   14 1
    11    9   10 1
    12   10   11 1
    13   11   12 1
    14   12   13 1
    15   12   15 1
    16   13   14 1
    17   15   16 2
    18   15   17 1
    19   17   22 ar
    20   17   18 ar
    21   18   19 ar
    22   19   20 ar
    23   19   25 1
    24   20   21 ar
    25   21   22 ar
    26   21   23 1
    27   23   24 1
    28   25   26 1
    29    1   27 1
    30    1   28 1
    31    1   29 1
    32    3   30 1
    33    4   31 1
    34    5   32 1
    35    8   33 1
    36    8   34 1
    37    8   35 1
    38   10   36 1
    39   10   37 1
    40   11   38 1
    41   11   39 1
    42   13   40 1
    43   13   41 1
    44   14   42 1
    45   14   43 1
    46   18   44 1
    47   20   45 1
    48   22   46 1
    49   24   47 1
    50   24   48 1
    51   24   49 1
    52   26   50 1
    53   26   51 1
    54   26   52 1
@<TRIPOS>MOLECULE
ZINC00998015
 44 46 0 0 0
SMALL
NO_CHARGES


@<TRIPOS>ATOM
      1 C           3.124     1.859     0.355  C    
      2 C           4.420     1.683    -0.154  C    
      3 C           4.679     0.743    -1.181  C    
      4 C           3.589    -0.031    -1.660  C    
      5 C           2.272     0.133    -1.169  C    
      6 C           2.058     1.098    -0.152  C    
      7 N           1.237    -0.615    -1.663  N    
      8 O           0.104    -0.494    -1.281  O    
      9 O           1.406    -1.511    -2.601  O    
     10 C           5.985     0.594    -1.650  C    
     11 C           6.322     0.190    -2.887  C    
     12 C           7.604     0.002    -3.288  C    
     13 O           8.303     1.006    -3.234  O    
     14 N           8.092    -1.160    -3.765  N    
     15 C           7.318    -2.390    -3.840  C    
     16 C           8.028    -3.543    -3.080  C    
     17 N           9.407    -3.664    -3.527  N    
     18 C          10.166    -2.428    -3.417  C    
     19 C           9.472    -1.295    -4.214  C    
     20 C           9.932    -4.833    -4.042  C    
     21 C           9.458    -6.110    -3.627  C    
     22 C           9.983    -7.307    -4.147  C    
     23 C          11.011    -7.264    -5.104  C    
     24 C          11.504    -6.023    -5.539  C    
     25 C          10.978    -4.832    -5.008  C    
     26 Cl         11.660    -8.698    -5.727  Cl   
     27 H           2.954     2.541     1.096  H    
     28 H           5.176     2.256     0.229  H    
     29 H           3.764    -0.749    -2.364  H    
     30 H           1.125     1.241     0.241  H    
     31 H           6.722     0.847    -1.032  H    
     32 H           5.618     0.007    -3.559  H    
     33 H           6.308    -2.303    -3.436  H    
     34 H           7.211    -2.668    -4.893  H    
     35 H           8.012    -3.345    -2.005  H    
     36 H           7.431    -4.440    -3.251  H    
     37 H          10.216    -2.136    -2.364  H    
     38 H          11.204    -2.511    -3.734  H    
     39 H           9.485    -1.550    -5.278  H    
     40 H          10.065    -0.384    -4.100  H    
     41 H           8.750    -6.194    -2.896  H    
     42 H           9.621    -8.204    -3.818  H    
     43 H          12.240    -5.978    -6.247  H    
     44 H          11.334    -3.960    -5.395  H    
@<TRIPOS>BOND
     1    1    6 ar
     2    1    2 ar
     3    2    3 ar
     4    3    4 ar
     5    3   10 1
     6    4    5 ar
     7    5    6 ar
     8    5    7 1
     9    7    8 2
    10    7    9 1
    11   10   11 2
    12   11   12 1
    13   12   13 2
    14   12   14 1
    15   14   19 1
    16   14   15 1
    17   15   16 1
    18   16   17 1
    19   17   18 1
    20   17   20 1
    21   18   19 1
    22   20   25 ar
    23   20   21 ar
    24   21   22 ar
    25   22   23 ar
    26   23   24 ar
    27   23   26 1
    28   24   25 ar
    29    1   27 1
    30    2   28 1
    31    4   29 1
    32    6   30 1
    33   10   31 1
    34   11   32 1
    35   15   33 1
    36   15   34 1
    37   16   35 1
    38   16   36 1
    39   18   37 1
    40   18   38 1
    41   19   39 1
    42   19   40 1
    43   21   41 1
    44   22   42 1
    45   24   43 1
    46   25   44 1
@<TRIPOS>MOLECULE
ZINC01002274
 31 32 0 0 0
SMALL
NO_CHARGES


@<TRIPOS>ATOM
      1 C           3.255    -6.556    -0.263  C    
      2 O           2.066    -6.981    -0.946  O    
      3 C           1.561    -6.290    -2.027  C    
      4 C           2.106    -5.116    -2.601  C    
      5 C           1.501    -4.486    -3.717  C    
      6 C           0.330    -5.062    -4.249  C    
      7 C          -0.243    -6.235    -3.701  C    
      8 C           0.392    -6.827    -2.593  C    
      9 O          -1.380    -6.878    -4.141  O    
     10 C          -2.132    -6.387    -5.261  C    
     11 N           1.944    -3.348    -4.349  N    
     12 C           2.983    -2.551    -4.138  C    
     13 O           3.790    -2.747    -3.235  O    
     14 C           3.175    -1.452    -4.961  C    
     15 C           4.208    -0.501    -4.894  C    
     16 C           4.157     0.516    -5.862  C    
     17 C           3.078     0.419    -6.744  C    
     18 S           2.183    -0.971    -6.289  S    
     19 Br          2.686     1.577    -8.146  Br   
     20 H           4.116    -6.563    -0.934  H    
     21 H           3.449    -7.259     0.548  H    
     22 H           3.124    -5.563     0.170  H    
     23 H           2.951    -4.724    -2.195  H    
     24 H          -0.117    -4.617    -5.055  H    
     25 H          -0.011    -7.675    -2.186  H    
     26 H          -2.516    -5.385    -5.061  H    
     27 H          -2.979    -7.053    -5.419  H    
     28 H          -1.523    -6.385    -6.167  H    
     29 H           1.387    -3.078    -5.095  H    
     30 H           4.953    -0.536    -4.193  H    
     31 H           4.850     1.265    -5.917  H    
@<TRIPOS>BOND
     1    1    2 1
     2    2    3 1
     3    3    8 ar
     4    3    4 ar
     5    4    5 ar
     6    5    6 ar
     7    5   11 1
     8    6    7 ar
     9    7    8 ar
    10    7    9 1
    11    9   10 1
    12   11   12 1
    13   12   13 2
    14   12   14 1
    15   14   18 1
    16   14   15 2
    17   15   16 1
    18   16   17 2
    19   17   18 1
    20   17   19 1
    21    1   20 1
    22    1   21 1
    23    1   22 1
    24    4   23 1
    25    6   24 1
    26    8   25 1
    27   10   26 1
    28   10   27 1
    29   10   28 1
    30   11   29 1
    31   15   30 1
    32   16   31 1
@<TRIPOS>MOLECULE
ZINC01012819
 38 40 0 0 0
SMALL
NO_CHARGES


@<TRIPOS>ATOM
      1 C           2.349   -14.435    -5.325  C    
      2 C           2.184   -13.067    -4.818  C    
      3 C           2.230   -12.631    -3.488  C    
      4 C           2.044   -11.249    -3.323  C    
      5 C           1.850   -10.527    -4.512  C    
      6 S           1.886   -11.681    -5.791  S    
      7 C           1.613    -9.183    -4.713  C    
      8 C           2.110    -8.151    -4.002  C    
      9 C           1.804    -6.852    -4.226  C    
     10 O           0.909    -6.496    -4.989  O    
     11 N           2.551    -5.991    -3.551  N    
     12 C           3.443    -6.614    -2.800  C    
     13 O           4.272    -6.064    -2.083  O    
     14 S           3.374    -8.308    -2.860  S    
     15 C           2.441    -4.545    -3.623  C    
     16 C           3.446    -3.899    -4.454  C    
     17 O           4.209    -4.592    -5.119  O    
     18 N           3.453    -2.570    -4.502  N    
     19 C           4.261    -1.691    -5.183  C    
     20 C           5.455    -2.022    -5.877  C    
     21 C           6.207    -1.032    -6.536  C    
     22 C           5.790     0.310    -6.504  C    
     23 C           4.622     0.662    -5.806  C    
     24 C           3.868    -0.331    -5.153  C    
     25 H           1.452   -14.737    -5.874  H    
     26 H           2.513   -15.134    -4.501  H    
     27 H           3.209   -14.469    -5.997  H    
     28 H           2.373   -13.263    -2.699  H    
     29 H           2.017   -10.818    -2.398  H    
     30 H           1.045    -8.974    -5.497  H    
     31 H           1.459    -4.252    -4.004  H    
     32 H           2.507    -4.138    -2.610  H    
     33 H           2.753    -2.149    -3.978  H    
     34 H           5.808    -2.978    -5.904  H    
     35 H           7.062    -1.286    -7.036  H    
     36 H           6.338     1.027    -6.983  H    
     37 H           4.318     1.639    -5.772  H    
     38 H           3.020    -0.051    -4.653  H    
@<TRIPOS>BOND
     1    1    2 1
     2    2    6 1
     3    2    3 2
     4    3    4 1
     5    4    5 2
     6    5    6 1
     7    5    7 1
     8    7    8 2
     9    8   14 1
    10    8    9 1
    11    9   10 2
    12    9   11 1
    13   11   12 1
    14   11   15 1
    15   12   13 2
    16   12   14 1
    17   15   16 1
    18   16   17 2
    19   16   18 1
    20   18   19 1
    21   19   24 ar
    22   19   20 ar
    23   20   21 ar
    24   21   22 ar
    25   22   23 ar
    26   23   24 ar
    27    1   25 1
    28    1   26 1
    29    1   27 1
    30    3   28 1
    31    4   29 1
    32    7   30 1
    33   15   31 1
    34   15   32 1
    35   18   33 1
    36   20   34 1
    37   21   35 1
    38   22   36 1
    39   23   37 1
    40   24   38 1
@<TRIPOS>MOLECULE
ZINC01023462
 49 52 0 0 0
SMALL
NO_CHARGES


@<TRIPOS>ATOM
      1 C           5.587   -12.065    -2.638  C    
      2 C           6.140   -10.988    -3.364  C    
      3 C           5.285   -10.032    -3.943  C    
      4 C           3.898   -10.166    -3.789  C    
      5 C           3.325   -11.227    -3.071  C    
      6 C           4.185   -12.185    -2.490  C    
      7 Cl          3.538   -13.476    -1.611  Cl   
      8 S           3.195    -8.839    -4.614  S    
      9 C           4.691    -8.147    -5.136  C    
     10 N           5.678    -8.950    -4.661  N    
     11 N           4.877    -7.004    -5.866  N    
     12 C           6.207    -6.519    -6.173  C    
     13 C           6.604    -5.301    -5.300  C    
     14 C           5.671    -4.066    -5.435  C    
     15 N           4.422    -4.215    -4.770  N    
     16 C           3.412    -5.134    -5.167  C    
     17 C           3.760    -6.174    -6.266  C    
     18 C           4.131    -3.419    -3.773  C    
     19 S           4.703    -3.848    -2.224  S    
     20 N           3.629    -2.249    -4.044  N    
     21 C           2.809    -1.470    -3.223  C    
     22 C           3.449    -0.080    -2.980  C    
     23 C           2.602     0.848    -2.087  C    
     24 C           3.050     2.252    -2.516  C    
     25 C           3.781     2.018    -3.853  C    
     26 O           3.590     0.644    -4.210  O    
     27 H           6.210   -12.758    -2.218  H    
     28 H           7.154   -10.904    -3.468  H    
     29 H           2.309   -11.296    -2.975  H    
     30 H           6.969    -7.289    -6.031  H    
     31 H           6.264    -6.243    -7.230  H    
     32 H           6.645    -5.609    -4.251  H    
     33 H           7.616    -5.001    -5.590  H    
     34 H           6.233    -3.206    -5.046  H    
     35 H           5.495    -3.848    -6.492  H    
     36 H           3.084    -5.705    -4.291  H    
     37 H           2.546    -4.568    -5.525  H    
     38 H           3.976    -5.646    -7.199  H    
     39 H           2.874    -6.779    -6.481  H    
     40 H           3.740    -1.943    -4.921  H    
     41 H           1.852    -1.346    -3.736  H    
     42 H           2.607    -1.944    -2.259  H    
     43 H           4.438    -0.221    -2.525  H    
     44 H           1.535     0.719    -2.291  H    
     45 H           2.791     0.666    -1.025  H    
     46 H           2.191     2.916    -2.644  H    
     47 H           3.731     2.687    -1.778  H    
     48 H           3.375     2.656    -4.641  H    
     49 H           4.852     2.223    -3.751  H    
@<TRIPOS>BOND
     1    1    6 ar
     2    1    2 ar
     3    2    3 ar
     4    3   10 1
     5    3    4 ar
     6    4    5 ar
     7    4    8 1
     8    5    6 ar
     9    6    7 1
    10    8    9 1
    11    9   10 2
    12    9   11 1
    13   11   17 1
    14   11   12 1
    15   12   13 1
    16   13   14 1
    17   14   15 1
    18   15   16 1
    19   15   18 1
    20   16   17 1
    21   18   19 2
    22   18   20 1
    23   20   21 1
    24   21   22 1
    25   22   26 1
    26   22   23 1
    27   23   24 1
    28   24   25 1
    29   25   26 1
    30    1   27 1
    31    2   28 1
    32    5   29 1
    33   12   30 1
    34   12   31 1
    35   13   32 1
    36   13   33 1
    37   14   34 1
    38   14   35 1
    39   16   36 1
    40   16   37 1
    41   17   38 1
    42   17   39 1
    43   20   40 1
    44   21   41 1
    45   21   42 1
    46   22   43 1
    47   23   44 1
    48   23   45 1
    49   24   46 1
    50   24   47 1
    51   25   48 1
    52   25   49 1
@<TRIPOS>MOLECULE
ZINC01030103
 49 52 0 0 0
SMALL
NO_CHARGES


@<TRIPOS>ATOM
      1 C           5.164    -4.976    -1.910  C    
      2 C           5.754    -3.658    -1.688  C    
      3 C           6.894    -3.212    -2.230  C    
      4 C           7.091    -1.992    -1.726  C    
      5 O           8.065    -1.279    -1.937  O    
      6 N           6.088    -1.718    -0.907  N    
      7 N           5.272    -2.721    -0.909  N    
      8 C           4.002    -2.775    -0.296  C    
      9 C           6.029    -0.574    -0.142  C    
     10 C           6.039    -0.657     1.269  C    
     11 C           5.995     0.508     2.058  C    
     12 C           5.937     1.770     1.440  C    
     13 C           5.928     1.869     0.037  C    
     14 C           5.977     0.702    -0.748  C    
     15 N           7.614    -3.901    -3.068  N    
     16 C           8.760    -3.726    -3.621  C    
     17 C           9.250    -4.687    -4.473  C    
     18 C          10.512    -4.715    -5.061  C    
     19 C          10.584    -5.871    -5.819  C    
     20 C           9.362    -6.545    -5.700  C    
     21 O           8.581    -5.796    -4.874  O    
     22 N           8.948    -7.720    -6.264  N    
     23 C           9.779    -8.529    -7.131  C    
     24 C           9.054    -8.747    -8.487  C    
     25 O           7.724    -9.274    -8.279  O    
     26 C           6.911    -8.449    -7.418  C    
     27 C           7.601    -8.217    -6.044  C    
     28 H           5.068    -5.490    -0.951  H    
     29 H           5.765    -5.601    -2.569  H    
     30 H           4.174    -4.871    -2.359  H    
     31 H           3.225    -2.957    -1.041  H    
     32 H           3.741    -1.852     0.219  H    
     33 H           3.978    -3.583     0.439  H    
     34 H           6.087    -1.569     1.730  H    
     35 H           6.010     0.437     3.078  H    
     36 H           5.909     2.618     2.012  H    
     37 H           5.886     2.788    -0.411  H    
     38 H           5.961     0.783    -1.767  H    
     39 H           9.314    -2.921    -3.427  H    
     40 H          11.256    -4.023    -4.952  H    
     41 H          11.402    -6.150    -6.366  H    
     42 H          10.760    -8.097    -7.333  H    
     43 H           9.947    -9.503    -6.657  H    
     44 H           9.003    -7.802    -9.041  H    
     45 H           9.619    -9.462    -9.087  H    
     46 H           6.707    -7.485    -7.900  H    
     47 H           5.956    -8.957    -7.258  H    
     48 H           7.656    -9.168    -5.504  H    
     49 H           6.976    -7.547    -5.451  H    
@<TRIPOS>BOND
     1    1    2 1
     2    2    7 1
     3    2    3 2
     4    3    4 1
     5    3   15 1
     6    4    5 2
     7    4    6 1
     8    6    7 1
     9    6    9 1
    10    7    8 1
    11    9   14 ar
    12    9   10 ar
    13   10   11 ar
    14   11   12 ar
    15   12   13 ar
    16   13   14 ar
    17   15   16 2
    18   16   17 1
    19   17   21 1
    20   17   18 2
    21   18   19 1
    22   19   20 2
    23   20   21 1
    24   20   22 1
    25   22   27 1
    26   22   23 1
    27   23   24 1
    28   24   25 1
    29   25   26 1
    30   26   27 1
    31    1   28 1
    32    1   29 1
    33    1   30 1
    34    8   31 1
    35    8   32 1
    36    8   33 1
    37   10   34 1
    38   11   35 1
    39   12   36 1
    40   13   37 1
    41   14   38 1
    42   16   39 1
    43   18   40 1
    44   19   41 1
    45   23   42 1
    46   23   43 1
    47   24   44 1
    48   24   45 1
    49   26   46 1
    50   26   47 1
    51   27   48 1
    52   27   49 1
@<TRIPOS>MOLECULE
ZINC01031169
 53 55 0 0 0
SMALL
NO_CHARGES


@<TRIPOS>ATOM
      1 C           4.372    -4.322    -2.941  C    
      2 C           4.174    -2.827    -2.523  C    
      3 C           3.845    -1.975    -3.790  C    
      4 C           2.945    -2.790    -1.550  C    
      5 C           5.367    -2.215    -1.833  C    
      6 C           6.714    -2.575    -1.738  C    
      7 C           7.344    -1.669    -0.862  C    
      8 N           6.368    -0.768    -0.541  N    
      9 N           5.250    -1.097    -1.106  N    
     10 C           6.369     0.384     0.312  C    
     11 C           8.812    -1.641    -0.453  C    
     12 C           9.573    -2.993    -0.695  C    
     13 C           9.540    -0.543    -1.290  C    
     14 C           8.977    -1.330     1.076  C    
     15 N           7.284    -3.610    -2.404  N    
     16 C           7.624    -3.614    -3.689  C    
     17 O           7.437    -2.619    -4.375  O    
     18 C           8.149    -4.768    -4.256  C    
     19 C           8.327    -5.112    -5.620  C    
     20 C           8.851    -6.408    -5.842  C    
     21 C           9.114    -7.037    -7.081  C    
     22 C           9.620    -8.354    -7.109  C    
     23 C           9.875    -9.049    -5.905  C    
     24 C           9.624    -8.431    -4.664  C    
     25 C           9.111    -7.125    -4.660  C    
     26 S           8.667    -6.133    -3.331  S    
     27 Cl          7.901    -4.086    -6.910  Cl   
     28 H           3.435    -4.759    -3.290  H    
     29 H           4.728    -4.912    -2.091  H    
     30 H           5.083    -4.420    -3.760  H    
     31 H           4.685    -1.986    -4.491  H    
     32 H           3.639    -0.937    -3.523  H    
     33 H           2.969    -2.372    -4.307  H    
     34 H           2.060    -3.238    -2.016  H    
     35 H           2.681    -1.763    -1.281  H    
     36 H           3.164    -3.339    -0.635  H    
     37 H           6.493     0.076     1.351  H    
     38 H           5.428     0.934     0.245  H    
     39 H           7.164     1.074     0.034  H    
     40 H           9.037    -3.822    -0.228  H    
     41 H          10.583    -2.966    -0.280  H    
     42 H           9.697    -3.201    -1.760  H    
     43 H           9.471    -0.766    -2.359  H    
     44 H          10.596    -0.487    -1.017  H    
     45 H           9.104     0.445    -1.125  H    
     46 H           8.758    -0.287     1.307  H    
     47 H          10.003    -1.498     1.413  H    
     48 H           8.317    -1.969     1.668  H    
     49 H           7.492    -4.399    -1.879  H    
     50 H           8.936    -6.551    -7.964  H    
     51 H           9.803    -8.808    -8.006  H    
     52 H          10.240   -10.006    -5.935  H    
     53 H           9.797    -8.928    -3.786  H    
@<TRIPOS>BOND
     1    1    2 1
     2    2    3 1
     3    2    4 1
     4    2    5 1
     5    5    9 2
     6    5    6 1
     7    6    7 2
     8    6   15 1
     9    7    8 1
    10    7   11 1
    11    8    9 1
    12    8   10 1
    13   11   12 1
    14   11   13 1
    15   11   14 1
    16   15   16 1
    17   16   17 2
    18   16   18 1
    19   18   26 1
    20   18   19 2
    21   19   20 1
    22   19   27 1
    23   20   25 ar
    24   20   21 ar
    25   21   22 ar
    26   22   23 ar
    27   23   24 ar
    28   24   25 ar
    29   25   26 1
    30    1   28 1
    31    1   29 1
    32    1   30 1
    33    3   31 1
    34    3   32 1
    35    3   33 1
    36    4   34 1
    37    4   35 1
    38    4   36 1
    39   10   37 1
    40   10   38 1
    41   10   39 1
    42   12   40 1
    43   12   41 1
    44   12   42 1
    45   13   43 1
    46   13   44 1
    47   13   45 1
    48   14   46 1
    49   14   47 1
    50   14   48 1
    51   15   49 1
    52   21   50 1
    53   22   51 1
    54   23   52 1
    55   24   53 1
@<TRIPOS>MOLECULE
ZINC01033442
 42 45 0 0 0
SMALL
NO_CHARGES


@<TRIPOS>ATOM
      1 C           3.119    -0.641    -2.065  C    
      2 C           2.451    -0.365    -3.358  C    
      3 C           1.098    -0.058    -3.559  C    
      4 C           0.931    -0.120    -4.937  C    
      5 N           2.111    -0.388    -5.506  N    
      6 N           3.017    -0.518    -4.584  N    
      7 C           4.327    -0.774    -4.901  C    
      8 C           4.651    -1.755    -5.869  C    
      9 C           5.989    -2.013    -6.214  C    
     10 C           7.030    -1.302    -5.588  C    
     11 C           6.724    -0.312    -4.636  C    
     12 C           5.385    -0.038    -4.313  C    
     13 F           8.274    -1.552    -5.896  F    
     14 C           0.099     0.264    -2.653  C    
     15 O          -1.070     0.068    -2.963  O    
     16 N           0.392     0.860    -1.506  N    
     17 C          -0.542     1.244    -0.497  C    
     18 C           0.159     1.968     0.590  C    
     19 C           0.644     1.275     1.730  C    
     20 C           1.308     1.963     2.764  C    
     21 C           1.493     3.350     2.651  C    
     22 C           1.029     4.040     1.542  C    
     23 C           0.362     3.368     0.503  C    
     24 O           1.292     5.359     1.627  O    
     25 C           2.116     5.415     2.807  C    
     26 O           2.087     4.172     3.535  O    
     27 H           3.638    -1.597    -2.126  H    
     28 H           2.410    -0.717    -1.242  H    
     29 H           3.846     0.141    -1.836  H    
     30 H           0.064     0.042    -5.455  H    
     31 H           3.908    -2.294    -6.324  H    
     32 H           6.205    -2.727    -6.915  H    
     33 H           7.475     0.215    -4.182  H    
     34 H           5.179     0.712    -3.644  H    
     35 H           1.327     1.067    -1.341  H    
     36 H          -1.315     1.884    -0.929  H    
     37 H          -1.036     0.353    -0.108  H    
     38 H           0.515     0.262     1.814  H    
     39 H           1.649     1.464     3.589  H    
     40 H           0.022     3.898    -0.304  H    
     41 H           3.147     5.631     2.513  H    
     42 H           1.767     6.222     3.455  H    
@<TRIPOS>BOND
     1    1    2 1
     2    2    6 1
     3    2    3 2
     4    3    4 1
     5    3   14 1
     6    4    5 2
     7    5    6 1
     8    6    7 1
     9    7   12 ar
    10    7    8 ar
    11    8    9 ar
    12    9   10 ar
    13   10   11 ar
    14   10   13 1
    15   11   12 ar
    16   14   15 2
    17   14   16 1
    18   16   17 1
    19   17   18 1
    20   18   23 ar
    21   18   19 ar
    22   19   20 ar
    23   20   21 ar
    24   21   26 1
    25   21   22 ar
    26   22   23 ar
    27   22   24 1
    28   24   25 1
    29   25   26 1
    30    1   27 1
    31    1   28 1
    32    1   29 1
    33    4   30 1
    34    8   31 1
    35    9   32 1
    36   11   33 1
    37   12   34 1
    38   16   35 1
    39   17   36 1
    40   17   37 1
    41   19   38 1
    42   20   39 1
    43   23   40 1
    44   25   41 1
    45   25   42 1
@<TRIPOS>MOLECULE
ZINC01067585
 46 49 0 0 0
SMALL
NO_CHARGES


@<TRIPOS>ATOM
      1 C          -0.096   -14.869    -3.807  C    
      2 C          -0.568   -14.654    -5.261  C    
      3 O           0.348   -13.904    -6.087  O    
      4 C           0.646   -12.617    -5.713  C    
      5 C          -0.299   -11.575    -5.738  C    
      6 C           0.083   -10.257    -5.436  C    
      7 C           1.427    -9.902    -5.113  C    
      8 C           2.354   -10.985    -5.093  C    
      9 C           1.977   -12.311    -5.386  C    
     10 N           1.806    -8.589    -4.848  N    
     11 C           0.828    -7.507    -4.861  C    
     12 N           1.285    -6.188    -4.595  N    
     13 C           2.572    -5.911    -4.338  C    
     14 N           3.510    -6.863    -4.306  N    
     15 C           4.703    -6.361    -4.026  C    
     16 O           5.706    -7.063    -3.962  O    
     17 C           4.714    -5.018    -3.842  C    
     18 C           5.796    -4.310    -3.450  C    
     19 C           5.859    -2.931    -3.282  C    
     20 C           6.294    -2.422    -2.032  C    
     21 C           6.349    -1.036    -1.802  C    
     22 C           5.990    -0.139    -2.824  C    
     23 C           5.595    -0.627    -4.082  C    
     24 C           5.535    -2.014    -4.320  C    
     25 O           5.202    -2.416    -5.575  O    
     26 S           3.156    -4.320    -4.019  S    
     27 C           3.195    -8.245    -4.553  C    
     28 H           0.863   -15.402    -3.789  H    
     29 H          -0.838   -15.464    -3.263  H    
     30 H           0.017   -13.910    -3.299  H    
     31 H          -0.673   -15.633    -5.721  H    
     32 H          -1.558   -14.198    -5.265  H    
     33 H          -1.270   -11.766    -5.987  H    
     34 H          -0.655    -9.554    -5.481  H    
     35 H           3.335   -10.833    -4.870  H    
     36 H           2.683   -13.053    -5.373  H    
     37 H           0.360    -7.459    -5.848  H    
     38 H           0.059    -7.713    -4.114  H    
     39 H           6.607    -4.816    -3.177  H    
     40 H           6.553    -3.056    -1.269  H    
     41 H           6.646    -0.682    -0.890  H    
     42 H           6.034     0.869    -2.661  H    
     43 H           5.359     0.032    -4.828  H    
     44 H           5.412    -3.373    -5.622  H    
     45 H           3.500    -8.803    -3.662  H    
     46 H           3.813    -8.562    -5.398  H    
@<TRIPOS>BOND
     1    1    2 1
     2    2    3 1
     3    3    4 1
     4    4    9 ar
     5    4    5 ar
     6    5    6 ar
     7    6    7 ar
     8    7    8 ar
     9    7   10 1
    10    8    9 ar
    11   10   27 1
    12   10   11 1
    13   11   12 1
    14   12   13 2
    15   13   26 1
    16   13   14 1
    17   14   15 1
    18   14   27 1
    19   15   16 2
    20   15   17 1
    21   17   18 2
    22   17   26 1
    23   18   19 1
    24   19   24 ar
    25   19   20 ar
    26   20   21 ar
    27   21   22 ar
    28   22   23 ar
    29   23   24 ar
    30   24   25 1
    31    1   28 1
    32    1   29 1
    33    1   30 1
    34    2   31 1
    35    2   32 1
    36    5   33 1
    37    6   34 1
    38    8   35 1
    39    9   36 1
    40   11   37 1
    41   11   38 1
    42   18   39 1
    43   20   40 1
    44   21   41 1
    45   22   42 1
    46   23   43 1
    47   25   44 1
    48   27   45 1
    49   27   46 1
@<TRIPOS>MOLECULE
ZINC01073978
 41 44 0 0 0
SMALL
NO_CHARGES


@<TRIPOS>ATOM
      1 C          -2.165    -6.602    -4.377  C    
      2 C          -0.864    -6.134    -4.873  C    
      3 C          -0.137    -6.645    -5.942  C    
      4 C           1.023    -5.892    -6.040  C    
      5 C           0.987    -4.933    -5.027  C    
      6 O          -0.170    -5.102    -4.335  O    
      7 C           1.935    -3.933    -4.713  C    
      8 C           3.168    -3.773    -5.381  C    
      9 C           4.079    -2.753    -5.000  C    
     10 C           3.710    -1.871    -3.938  C    
     11 C           4.492    -0.768    -3.502  C    
     12 C           4.064     0.064    -2.451  C    
     13 C           2.834    -0.180    -1.817  C    
     14 C           2.028    -1.248    -2.241  C    
     15 C           2.457    -2.080    -3.293  C    
     16 N           1.642    -3.083    -3.700  N    
     17 Br          5.117     1.499    -1.908  Br   
     18 C           5.306    -2.692    -5.662  C    
     19 O           6.337    -2.585    -5.009  O    
     20 N           5.364    -2.822    -6.982  N    
     21 C           6.555    -2.833    -7.769  C    
     22 C           6.220    -2.965    -9.195  C    
     23 C           5.497    -2.054    -9.962  C    
     24 C           5.413    -2.580   -11.241  C    
     25 C           6.089    -3.793   -11.223  C    
     26 O           6.574    -4.014    -9.979  O    
     27 H          -2.064    -6.919    -3.340  H    
     28 H          -2.532    -7.443    -4.969  H    
     29 H          -2.888    -5.788    -4.433  H    
     30 H          -0.403    -7.425    -6.545  H    
     31 H           1.756    -6.030    -6.736  H    
     32 H           3.417    -4.424    -6.130  H    
     33 H           5.377    -0.540    -3.955  H    
     34 H           2.519     0.427    -1.058  H    
     35 H           1.125    -1.410    -1.786  H    
     36 H           4.521    -2.915    -7.454  H    
     37 H           7.118    -1.908    -7.618  H    
     38 H           7.180    -3.678    -7.468  H    
     39 H           5.098    -1.170    -9.644  H    
     40 H           4.944    -2.158   -12.042  H    
     41 H           6.204    -4.421   -12.020  H    
@<TRIPOS>BOND
     1    1    2 1
     2    2    6 1
     3    2    3 2
     4    3    4 1
     5    4    5 2
     6    5    6 1
     7    5    7 1
     8    7   16 ar
     9    7    8 ar
    10    8    9 ar
    11    9   10 ar
    12    9   18 1
    13   10   15 ar
    14   10   11 ar
    15   11   12 ar
    16   12   13 ar
    17   12   17 1
    18   13   14 ar
    19   14   15 ar
    20   15   16 ar
    21   18   19 2
    22   18   20 1
    23   20   21 1
    24   21   22 1
    25   22   26 1
    26   22   23 2
    27   23   24 1
    28   24   25 2
    29   25   26 1
    30    1   27 1
    31    1   28 1
    32    1   29 1
    33    3   30 1
    34    4   31 1
    35    8   32 1
    36   11   33 1
    37   13   34 1
    38   14   35 1
    39   20   36 1
    40   21   37 1
    41   21   38 1
    42   23   39 1
    43   24   40 1
    44   25   41 1
@<TRIPOS>MOLECULE
ZINC01078353
 44 46 0 0 0
SMALL
NO_CHARGES


@<TRIPOS>ATOM
      1 C           0.664   -12.293    -6.133  C    
      2 C           1.720   -11.833    -5.100  C    
      3 C           1.722   -10.295    -4.890  C    
      4 C           2.848    -9.767    -3.947  C    
      5 C           2.690   -10.219    -2.470  C    
      6 N           2.913    -8.325    -4.013  N    
      7 C           3.931    -7.554    -4.458  C    
      8 C           3.559    -6.211    -4.343  C    
      9 C           2.272    -6.268    -3.800  C    
     10 N           1.943    -7.557    -3.625  N    
     11 O           1.377    -5.290    -3.522  O    
     12 C           4.352    -5.072    -4.905  C    
     13 S           6.045    -4.863    -4.258  S    
     14 C           6.579    -6.516    -3.763  C    
     15 C           6.302    -7.545    -4.751  C    
     16 O           7.227    -8.118    -5.301  O    
     17 N           5.091    -8.025    -4.988  N    
     18 C           3.658    -3.745    -4.868  C    
     19 C           3.608    -2.968    -3.681  C    
     20 C           2.959    -1.722    -3.659  C    
     21 C           2.320    -1.239    -4.811  C    
     22 C           2.336    -2.003    -5.991  C    
     23 C           3.002    -3.244    -6.019  C    
     24 Br          1.447     0.402    -4.777  Br   
     25 H          -0.338   -12.006    -5.806  H    
     26 H           0.697   -13.380    -6.239  H    
     27 H           0.863   -11.843    -7.108  H    
     28 H           1.509   -12.338    -4.155  H    
     29 H           2.705   -12.157    -5.448  H    
     30 H           1.851    -9.823    -5.867  H    
     31 H           0.748    -9.989    -4.499  H    
     32 H           3.793   -10.188    -4.305  H    
     33 H           1.735    -9.883    -2.060  H    
     34 H           3.496    -9.799    -1.865  H    
     35 H           2.742   -11.304    -2.386  H    
     36 H           1.778    -4.455    -3.830  H    
     37 H           4.510    -5.336    -5.956  H    
     38 H           7.652    -6.462    -3.568  H    
     39 H           6.094    -6.768    -2.818  H    
     40 H           5.034    -8.835    -5.521  H    
     41 H           4.048    -3.309    -2.822  H    
     42 H           2.947    -1.172    -2.797  H    
     43 H           1.861    -1.664    -6.827  H    
     44 H           2.989    -3.786    -6.886  H    
@<TRIPOS>BOND
     1    1    2 1
     2    2    3 1
     3    3    4 1
     4    4    5 1
     5    4    6 1
     6    6   10 1
     7    6    7 1
     8    7   17 1
     9    7    8 2
    10    8    9 1
    11    8   12 1
    12    9   10 2
    13    9   11 1
    14   12   13 1
    15   12   18 1
    16   13   14 1
    17   14   15 1
    18   15   16 2
    19   15   17 1
    20   18   23 ar
    21   18   19 ar
    22   19   20 ar
    23   20   21 ar
    24   21   22 ar
    25   21   24 1
    26   22   23 ar
    27    1   25 1
    28    1   26 1
    29    1   27 1
    30    2   28 1
    31    2   29 1
    32    3   30 1
    33    3   31 1
    34    4   32 1
    35    5   33 1
    36    5   34 1
    37    5   35 1
    38   11   36 1
    39   12   37 1
    40   14   38 1
    41   14   39 1
    42   17   40 1
    43   19   41 1
    44   20   42 1
    45   22   43 1
    46   23   44 1
@<TRIPOS>MOLECULE
ZINC01098955
 48 50 0 0 0
SMALL
NO_CHARGES


@<TRIPOS>ATOM
      1 C          -1.302    -7.737    -4.768  C    
      2 C          -1.202    -6.657    -5.874  C    
      3 C           0.027    -5.732    -5.668  C    
      4 C           0.037    -5.096    -4.244  C    
      5 C          -0.068    -6.186    -3.140  C    
      6 C          -1.296    -7.108    -3.350  C    
      7 N           1.221    -4.344    -3.999  N    
      8 C           1.623    -3.124    -4.429  C    
      9 N           2.806    -2.561    -4.091  N    
     10 C           2.949    -1.360    -4.641  C    
     11 O           3.968    -0.686    -4.546  O    
     12 C           1.851    -0.856    -5.439  C    
     13 S           0.611    -2.162    -5.453  S    
     14 C           1.209     0.459    -4.907  C    
     15 C           2.088     1.636    -5.000  C    
     16 O           2.451     2.119    -6.212  O    
     17 C           3.824    -3.190    -3.243  C    
     18 C           4.456    -4.443    -3.921  C    
     19 C           5.575    -5.074    -3.048  C    
     20 C           5.068    -5.399    -1.621  C    
     21 C           4.451    -4.156    -0.930  C    
     22 C           3.332    -3.514    -1.796  C    
     23 O           2.456     2.324    -3.895  O    
     24 H          -0.459    -8.426    -4.860  H    
     25 H          -2.223    -8.311    -4.904  H    
     26 H          -1.127    -7.143    -6.851  H    
     27 H          -2.112    -6.049    -5.871  H    
     28 H           0.943    -6.315    -5.814  H    
     29 H           0.008    -4.945    -6.428  H    
     30 H          -0.827    -4.430    -4.142  H    
     31 H           0.842    -6.797    -3.134  H    
     32 H          -0.152    -5.703    -2.162  H    
     33 H          -2.213    -6.529    -3.207  H    
     34 H          -1.282    -7.904    -2.601  H    
     35 H           2.193    -0.724    -6.464  H    
     36 H           0.303     0.679    -5.479  H    
     37 H           0.916     0.315    -3.863  H    
     38 H           4.651    -2.486    -3.103  H    
     39 H           3.694    -5.202    -4.111  H    
     40 H           4.883    -4.149    -4.885  H    
     41 H           5.931    -5.992    -3.526  H    
     42 H           6.418    -4.383    -2.980  H    
     43 H           4.314    -6.192    -1.678  H    
     44 H           5.903    -5.771    -1.016  H    
     45 H           4.035    -4.448     0.039  H    
     46 H           5.237    -3.420    -0.746  H    
     47 H           2.995    -2.591    -1.314  H    
     48 H           2.485    -4.201    -1.818  H    
@<TRIPOS>BOND
     1    1    6 1
     2    1    2 1
     3    2    3 1
     4    3    4 1
     5    4    5 1
     6    4    7 1
     7    5    6 1
     8    7    8 2
     9    8   13 1
    10    8    9 1
    11    9   10 1
    12    9   17 1
    13   10   11 2
    14   10   12 1
    15   12   13 1
    16   12   14 1
    17   14   15 1
    18   15   16 2
    19   15   23 1
    20   17   22 1
    21   17   18 1
    22   18   19 1
    23   19   20 1
    24   20   21 1
    25   21   22 1
    26    1   24 1
    27    1   25 1
    28    2   26 1
    29    2   27 1
    30    3   28 1
    31    3   29 1
    32    4   30 1
    33    5   31 1
    34    5   32 1
    35    6   33 1
    36    6   34 1
    37   12   35 1
    38   14   36 1
    39   14   37 1
    40   17   38 1
    41   18   39 1
    42   18   40 1
    43   19   41 1
    44   19   42 1
    45   20   43 1
    46   20   44 1
    47   21   45 1
    48   21   46 1
    49   22   47 1
    50   22   48 1
@<TRIPOS>MOLECULE
ZINC01107422
 38 40 0 0 0
SMALL
NO_CHARGES


@<TRIPOS>ATOM
      1 C          -0.160   -10.712    -7.157  C    
      2 C           1.184   -10.100    -7.229  C    
      3 C           2.094   -10.154    -8.285  C    
      4 N           3.188    -9.461    -7.925  N    
      5 O           3.029    -8.979    -6.722  O    
      6 C           1.814    -9.337    -6.249  C    
      7 S           1.265    -8.908    -4.656  S    
      8 O          -0.298    -8.611    -4.675  O    
      9 O           1.529   -10.151    -3.701  O    
     10 C           2.125    -7.496    -4.102  C    
     11 C           1.732    -6.221    -4.559  C    
     12 C           2.430    -5.071    -4.150  C    
     13 C           3.547    -5.163    -3.280  C    
     14 C           3.917    -6.448    -2.817  C    
     15 C           3.221    -7.602    -3.224  C    
     16 N           4.303    -4.115    -2.813  N    
     17 C           4.374    -2.835    -3.176  C    
     18 O           3.719    -2.392    -4.109  O    
     19 C           5.232    -1.973    -2.503  C    
     20 C           5.431    -0.600    -2.741  C    
     21 C           6.357     0.033    -1.887  C    
     22 C           6.934    -0.812    -0.937  C    
     23 S           6.262    -2.374    -1.181  S    
     24 C           1.938   -10.824    -9.585  C    
     25 H          -0.231   -11.351    -6.276  H    
     26 H          -0.373   -11.318    -8.039  H    
     27 H          -0.915    -9.927    -7.089  H    
     28 H           0.932    -6.123    -5.193  H    
     29 H           2.100    -4.164    -4.488  H    
     30 H           4.713    -6.555    -2.180  H    
     31 H           3.525    -8.517    -2.878  H    
     32 H           4.917    -4.355    -2.101  H    
     33 H           4.939    -0.081    -3.475  H    
     34 H           6.583     1.031    -1.954  H    
     35 H           7.621    -0.547    -0.228  H    
     36 H           1.780   -11.890    -9.430  H    
     37 H           2.829   -10.685   -10.197  H    
     38 H           1.082   -10.403   -10.110  H    
@<TRIPOS>BOND
     1    1    2 1
     2    2    6 2
     3    2    3 1
     4    3    4 2
     5    3   24 1
     6    4    5 1
     7    5    6 1
     8    6    7 1
     9    7    8 2
    10    7    9 2
    11    7   10 1
    12   10   15 ar
    13   10   11 ar
    14   11   12 ar
    15   12   13 ar
    16   13   14 ar
    17   13   16 1
    18   14   15 ar
    19   16   17 1
    20   17   18 2
    21   17   19 1
    22   19   23 1
    23   19   20 2
    24   20   21 1
    25   21   22 2
    26   22   23 1
    27    1   25 1
    28    1   26 1
    29    1   27 1
    30   11   28 1
    31   12   29 1
    32   14   30 1
    33   15   31 1
    34   16   32 1
    35   20   33 1
    36   21   34 1
    37   22   35 1
    38   24   36 1
    39   24   37 1
    40   24   38 1
@<TRIPOS>MOLECULE
ZINC01126875
 41 44 0 0 0
SMALL
NO_CHARGES


@<TRIPOS>ATOM
      1 C          -0.617    -0.011    -7.541  C    
      2 C          -0.376    -0.982    -6.557  C    
      3 C           0.934    -1.442    -6.324  C    
      4 C           2.031    -0.940    -7.071  C    
      5 C           1.771     0.052    -8.069  C    
      6 C           0.451     0.502    -8.294  C    
      7 C           2.836     0.575    -8.835  C    
      8 C           4.150     0.131    -8.623  C    
      9 C           4.416    -0.845    -7.650  C    
     10 C           3.370    -1.387    -6.867  C    
     11 C           3.701    -2.335    -5.921  C    
     12 O           3.793    -3.500    -6.283  O    
     13 N           4.004    -1.924    -4.697  N    
     14 C           4.392    -2.641    -3.630  C    
     15 C           5.259    -2.082    -2.753  C    
     16 C           6.001    -0.906    -2.912  C    
     17 C           6.572    -0.516    -4.156  C    
     18 C           7.335     0.663    -4.269  C    
     19 C           7.539     1.455    -3.128  C    
     20 C           7.016     1.078    -1.902  C    
     21 C           6.256    -0.097    -1.773  C    
     22 O           7.341     1.951    -0.930  O    
     23 C           7.980     3.003    -1.683  C    
     24 O           8.241     2.601    -3.041  O    
     25 C           3.780    -3.864    -3.327  C    
     26 O           2.584    -4.205    -3.859  O    
     27 O           4.296    -4.735    -2.428  O    
     28 H          -1.570     0.315    -7.712  H    
     29 H          -1.154    -1.358    -6.011  H    
     30 H           1.071    -2.155    -5.602  H    
     31 H           0.254     1.207    -9.010  H    
     32 H           2.664     1.285    -9.551  H    
     33 H           4.915     0.516    -9.182  H    
     34 H           5.385    -1.153    -7.518  H    
     35 H           4.043    -0.962    -4.586  H    
     36 H           5.369    -2.532    -1.872  H    
     37 H           6.469    -1.104    -4.986  H    
     38 H           7.744     0.935    -5.166  H    
     39 H           5.885    -0.344    -0.852  H    
     40 H           7.327     3.884    -1.690  H    
     41 H           8.922     3.278    -1.198  H    
@<TRIPOS>BOND
     1    1    6 ar
     2    1    2 ar
     3    2    3 ar
     4    3    4 ar
     5    4   10 ar
     6    4    5 ar
     7    5    6 ar
     8    5    7 ar
     9    7    8 ar
    10    8    9 ar
    11    9   10 ar
    12   10   11 1
    13   11   12 2
    14   11   13 1
    15   13   14 1
    16   14   15 2
    17   14   25 1
    18   15   16 1
    19   16   21 ar
    20   16   17 ar
    21   17   18 ar
    22   18   19 ar
    23   19   24 1
    24   19   20 ar
    25   20   21 ar
    26   20   22 1
    27   22   23 1
    28   23   24 1
    29   25   26 2
    30   25   27 1
    31    1   28 1
    32    2   29 1
    33    3   30 1
    34    6   31 1
    35    7   32 1
    36    8   33 1
    37    9   34 1
    38   13   35 1
    39   15   36 1
    40   17   37 1
    41   18   38 1
    42   21   39 1
    43   23   40 1
    44   23   41 1
@<TRIPOS>MOLECULE
ZINC01127151
 30 31 0 0 0
SMALL
NO_CHARGES


@<TRIPOS>ATOM
      1 C           4.666     3.069    -8.172  C    
      2 O           4.729     2.221    -7.023  O    
      3 C           5.848     1.686    -6.464  C    
      4 O           7.050     1.962    -7.023  O    
      5 C           5.755     0.874    -5.305  C    
      6 C           4.497     0.520    -4.762  C    
      7 C           4.400    -0.273    -3.604  C    
      8 C           5.562    -0.736    -2.945  C    
      9 C           6.817    -0.395    -3.487  C    
     10 C           6.914     0.397    -4.647  C    
     11 N           5.563    -1.488    -1.808  N    
     12 S           4.212    -2.073    -0.983  S    
     13 O           3.304    -0.880    -0.448  O    
     14 O           3.389    -3.057    -1.924  O    
     15 C           4.736    -3.023     0.367  C    
     16 C           4.164    -3.072     1.642  C    
     17 C           4.816    -3.939     2.538  C    
     18 C           5.921    -4.604     2.001  C    
     19 S           6.087    -4.088     0.368  S    
     20 Br          7.030    -5.814     2.880  Br   
     21 H           5.239     3.984    -8.001  H    
     22 H           3.623     3.333    -8.358  H    
     23 H           5.063     2.548    -9.048  H    
     24 H           3.630     0.835    -5.205  H    
     25 H           3.470    -0.501    -3.247  H    
     26 H           7.677    -0.722    -3.036  H    
     27 H           7.848     0.623    -4.998  H    
     28 H           6.429    -1.711    -1.432  H    
     29 H           3.340    -2.528     1.910  H    
     30 H           4.506    -4.074     3.504  H    
@<TRIPOS>BOND
     1    1    2 1
     2    2    3 1
     3    3    4 2
     4    3    5 1
     5    5   10 ar
     6    5    6 ar
     7    6    7 ar
     8    7    8 ar
     9    8    9 ar
    10    8   11 1
    11    9   10 ar
    12   11   12 1
    13   12   13 2
    14   12   14 2
    15   12   15 1
    16   15   19 1
    17   15   16 2
    18   16   17 1
    19   17   18 2
    20   18   19 1
    21   18   20 1
    22    1   21 1
    23    1   22 1
    24    1   23 1
    25    6   24 1
    26    7   25 1
    27    9   26 1
    28   10   27 1
    29   11   28 1
    30   16   29 1
    31   17   30 1
@<TRIPOS>MOLECULE
ZINC01133846
 44 47 0 0 0
SMALL
NO_CHARGES


@<TRIPOS>ATOM
      1 C           3.893    -2.933   -12.112  C    
      2 C           3.803    -4.142   -11.164  C    
      3 O           3.797    -3.687    -9.806  O    
      4 C           4.714    -3.914    -8.825  C    
      5 O           5.828    -4.634    -9.110  O    
      6 C           4.530    -3.347    -7.536  C    
      7 C           3.272    -2.840    -7.134  C    
      8 C           3.095    -2.265    -5.863  C    
      9 C           4.167    -2.144    -4.941  C    
     10 C           5.422    -2.663    -5.355  C    
     11 C           5.599    -3.259    -6.616  C    
     12 N           4.017    -1.539    -3.712  N    
     13 C           2.764    -1.509    -2.971  C    
     14 N           2.339    -0.163    -2.755  N    
     15 C           3.257     0.814    -2.590  C    
     16 N           4.578     0.582    -2.720  N    
     17 C           5.285     1.679    -2.512  C    
     18 O           6.491     1.694    -2.716  O    
     19 C           4.536     2.786    -2.256  C    
     20 C           4.931     4.065    -2.106  C    
     21 C           6.211     4.553    -1.914  C    
     22 C           7.283     4.023    -1.172  C    
     23 C           8.440     4.822    -1.145  C    
     24 C           8.320     6.025    -1.843  C    
     25 S           6.733     6.085    -2.502  S    
     26 S           2.852     2.458    -2.273  S    
     27 C           5.073    -0.723    -3.113  C    
     28 H           3.059    -2.247   -11.927  H    
     29 H           3.849    -3.269   -13.146  H    
     30 H           4.837    -2.406   -11.954  H    
     31 H           2.871    -4.682   -11.351  H    
     32 H           4.638    -4.822   -11.364  H    
     33 H           2.468    -2.880    -7.766  H    
     34 H           2.178    -1.869    -5.653  H    
     35 H           6.220    -2.655    -4.716  H    
     36 H           6.523    -3.623    -6.858  H    
     37 H           1.947    -2.066    -3.428  H    
     38 H           2.931    -1.970    -1.993  H    
     39 H           4.229     4.764    -2.155  H    
     40 H           7.226     3.140    -0.661  H    
     41 H           9.288     4.554    -0.640  H    
     42 H           9.034     6.746    -1.930  H    
     43 H           5.472    -1.228    -2.229  H    
     44 H           5.900    -0.565    -3.809  H    
@<TRIPOS>BOND
     1    1    2 1
     2    2    3 1
     3    3    4 1
     4    4    5 2
     5    4    6 1
     6    6   11 ar
     7    6    7 ar
     8    7    8 ar
     9    8    9 ar
    10    9   10 ar
    11    9   12 1
    12   10   11 ar
    13   12   27 1
    14   12   13 1
    15   13   14 1
    16   14   15 2
    17   15   26 1
    18   15   16 1
    19   16   17 1
    20   16   27 1
    21   17   18 2
    22   17   19 1
    23   19   20 2
    24   19   26 1
    25   20   21 1
    26   21   25 1
    27   21   22 2
    28   22   23 1
    29   23   24 2
    30   24   25 1
    31    1   28 1
    32    1   29 1
    33    1   30 1
    34    2   31 1
    35    2   32 1
    36    7   33 1
    37    8   34 1
    38   10   35 1
    39   11   36 1
    40   13   37 1
    41   13   38 1
    42   20   39 1
    43   22   40 1
    44   23   41 1
    45   24   42 1
    46   27   43 1
    47   27   44 1
@<TRIPOS>MOLECULE
ZINC01134873
 58 62 0 0 0
SMALL
NO_CHARGES


@<TRIPOS>ATOM
      1 C           6.163    -3.785    -2.020  C    
      2 N           4.770    -3.458    -1.854  N    
      3 C           4.323    -2.371    -1.196  C    
      4 O           5.101    -1.572    -0.687  O    
      5 C           2.938    -2.162    -1.082  C    
      6 C           2.388    -1.071    -0.364  C    
      7 C           0.996    -0.915    -0.253  C    
      8 C           0.135    -1.844    -0.857  C    
      9 C           0.660    -2.934    -1.570  C    
     10 C           2.062    -3.103    -1.705  C    
     11 C           2.642    -4.188    -2.394  C    
     12 N           3.933    -4.284    -2.399  N    
     13 C           1.923    -5.164    -3.073  C    
     14 C           1.131    -4.827    -4.190  C    
     15 C           0.397    -5.815    -4.870  C    
     16 C           0.426    -7.181    -4.484  C    
     17 C           1.270    -7.517    -3.384  C    
     18 C           1.989    -6.518    -2.681  C    
     19 N           1.549    -8.799    -3.042  N    
     20 S           2.793    -9.597    -3.856  S    
     21 O           2.880   -11.061    -3.244  O    
     22 O           2.429    -9.789    -5.390  O    
     23 C           4.314    -8.769    -3.657  C    
     24 C           4.754    -7.849    -4.637  C    
     25 C           5.959    -7.144    -4.457  C    
     26 C           6.727    -7.353    -3.296  C    
     27 C           6.285    -8.252    -2.307  C    
     28 C           5.080    -8.955    -2.487  C    
     29 N          -0.373    -8.097    -5.133  N    
     30 C          -1.140    -9.109    -4.414  C    
     31 C          -0.993   -10.491    -5.099  C    
     32 O          -1.343   -10.396    -6.495  O    
     33 C          -0.570    -9.414    -7.217  C    
     34 C          -0.668    -8.010    -6.552  C    
     35 H           6.361    -4.757    -1.566  H    
     36 H           6.839    -3.061    -1.560  H    
     37 H           6.405    -3.835    -3.084  H    
     38 H           2.994    -0.380     0.091  H    
     39 H           0.608    -0.129     0.274  H    
     40 H          -0.880    -1.729    -0.771  H    
     41 H           0.003    -3.601    -1.980  H    
     42 H           1.067    -3.854    -4.513  H    
     43 H          -0.208    -5.506    -5.633  H    
     44 H           2.595    -6.778    -1.895  H    
     45 H           1.444    -9.037    -2.106  H    
     46 H           4.197    -7.677    -5.476  H    
     47 H           6.276    -6.483    -5.171  H    
     48 H           7.607    -6.851    -3.170  H    
     49 H           6.836    -8.395    -1.457  H    
     50 H           4.761    -9.593    -1.753  H    
     51 H          -0.896    -9.203    -3.354  H    
     52 H          -2.195    -8.817    -4.456  H    
     53 H           0.029   -10.871    -4.975  H    
     54 H          -1.678   -11.203    -4.631  H    
     55 H           0.477    -9.731    -7.271  H    
     56 H          -0.961    -9.351    -8.234  H    
     57 H          -1.678    -7.606    -6.682  H    
     58 H           0.030    -7.352    -7.081  H    
@<TRIPOS>BOND
     1    1    2 1
     2    2   12 1
     3    2    3 1
     4    3    4 2
     5    3    5 1
     6    5   10 ar
     7    5    6 ar
     8    6    7 ar
     9    7    8 ar
    10    8    9 ar
    11    9   10 ar
    12   10   11 1
    13   11   12 2
    14   11   13 1
    15   13   18 ar
    16   13   14 ar
    17   14   15 ar
    18   15   16 ar
    19   16   17 ar
    20   16   29 1
    21   17   18 ar
    22   17   19 1
    23   19   20 1
    24   20   21 2
    25   20   22 2
    26   20   23 1
    27   23   28 ar
    28   23   24 ar
    29   24   25 ar
    30   25   26 ar
    31   26   27 ar
    32   27   28 ar
    33   29   34 1
    34   29   30 1
    35   30   31 1
    36   31   32 1
    37   32   33 1
    38   33   34 1
    39    1   35 1
    40    1   36 1
    41    1   37 1
    42    6   38 1
    43    7   39 1
    44    8   40 1
    45    9   41 1
    46   14   42 1
    47   15   43 1
    48   18   44 1
    49   19   45 1
    50   24   46 1
    51   25   47 1
    52   26   48 1
    53   27   49 1
    54   28   50 1
    55   30   51 1
    56   30   52 1
    57   31   53 1
    58   31   54 1
    59   33   55 1
    60   33   56 1
    61   34   57 1
    62   34   58 1
@<TRIPOS>MOLECULE
ZINC01135963
 44 47 0 0 0
SMALL
NO_CHARGES


@<TRIPOS>ATOM
      1 C           4.374    -5.108     1.437  C    
      2 C           3.138    -4.370     1.051  C    
      3 C           2.450    -4.629    -0.171  C    
      4 C           1.216    -3.995    -0.429  C    
      5 C           0.682    -3.063     0.475  C    
      6 C           1.375    -2.763     1.658  C    
      7 C           2.593    -3.410     1.952  C    
      8 Cl          3.342    -2.987     3.420  Cl   
      9 N           2.883    -5.469    -1.148  N    
     10 C           4.040    -5.430    -1.843  C    
     11 N           4.987    -4.491    -1.745  N    
     12 C           5.982    -4.663    -2.577  C    
     13 O           6.918    -3.872    -2.574  O    
     14 C           5.862    -5.755    -3.372  C    
     15 C           6.752    -6.093    -4.329  C    
     16 C           6.727    -7.231    -5.123  C    
     17 C           7.629    -7.511    -6.152  C    
     18 C           7.295    -8.751    -6.673  C    
     19 C           6.187    -9.221    -5.960  C    
     20 O           5.873    -8.281    -5.031  O    
     21 C           5.480   -10.446    -6.113  C    
     22 C           5.885   -11.451    -7.025  C    
     23 C           5.170   -12.658    -7.138  C    
     24 C           4.029   -12.919    -6.342  C    
     25 C           3.622   -11.905    -5.438  C    
     26 C           4.328   -10.694    -5.329  C    
     27 N           3.354   -14.100    -6.448  N    
     28 O           2.374   -14.352    -5.793  O    
     29 O           3.728   -15.050    -7.268  O    
     30 S           4.410    -6.616    -3.040  S    
     31 H           5.213    -4.409     1.483  H    
     32 H           4.630    -5.907     0.742  H    
     33 H           4.238    -5.570     2.415  H    
     34 H           0.706    -4.185    -1.296  H    
     35 H          -0.207    -2.598     0.268  H    
     36 H           0.975    -2.077     2.305  H    
     37 H           4.933    -3.749    -1.122  H    
     38 H           7.524    -5.480    -4.477  H    
     39 H           8.401    -6.919    -6.481  H    
     40 H           7.784    -9.222    -7.442  H    
     41 H           6.705   -11.323    -7.618  H    
     42 H           5.500   -13.351    -7.815  H    
     43 H           2.799   -12.042    -4.846  H    
     44 H           3.986    -9.992    -4.667  H    
@<TRIPOS>BOND
     1    1    2 1
     2    2    7 ar
     3    2    3 ar
     4    3    4 ar
     5    3    9 1
     6    4    5 ar
     7    5    6 ar
     8    6    7 ar
     9    7    8 1
    10    9   10 2
    11   10   30 1
    12   10   11 1
    13   11   12 1
    14   12   13 2
    15   12   14 1
    16   14   15 2
    17   14   30 1
    18   15   16 1
    19   16   20 1
    20   16   17 2
    21   17   18 1
    22   18   19 2
    23   19   20 1
    24   19   21 1
    25   21   26 ar
    26   21   22 ar
    27   22   23 ar
    28   23   24 ar
    29   24   25 ar
    30   24   27 1
    31   25   26 ar
    32   27   28 2
    33   27   29 1
    34    1   31 1
    35    1   32 1
    36    1   33 1
    37    4   34 1
    38    5   35 1
    39    6   36 1
    40   11   37 1
    41   15   38 1
    42   17   39 1
    43   18   40 1
    44   22   41 1
    45   23   42 1
    46   25   43 1
    47   26   44 1
@<TRIPOS>MOLECULE
ZINC01137998
 38 40 0 0 0
SMALL
NO_CHARGES


@<TRIPOS>ATOM
      1 C          -1.080    -7.922    -3.188  C    
      2 O          -0.386    -8.861    -4.035  O    
      3 C           0.531    -8.454    -4.983  C    
      4 C           0.704    -7.118    -5.408  C    
      5 C           1.658    -6.776    -6.392  C    
      6 C           2.401    -7.811    -7.001  C    
      7 C           2.262    -9.167    -6.611  C    
      8 C           1.318    -9.465    -5.584  C    
      9 O           1.144   -10.754    -5.178  O    
     10 N           3.030   -10.126    -7.217  N    
     11 O           2.998   -11.289    -6.919  O    
     12 O           3.895    -9.846    -8.160  O    
     13 C           1.825    -5.462    -6.821  C    
     14 C           1.949    -4.363    -6.049  C    
     15 C           2.161    -4.280    -4.717  C    
     16 O           2.483    -5.235    -4.022  O    
     17 N           2.134    -3.044    -4.248  N    
     18 C           1.958    -2.158    -5.211  C    
     19 O           1.898    -0.946    -5.056  O    
     20 S           1.867    -2.820    -6.774  S    
     21 C           2.324    -2.714    -2.923  C    
     22 C           3.500    -2.017    -2.552  C    
     23 C           3.749    -1.695    -1.204  C    
     24 C           2.821    -2.058    -0.210  C    
     25 C           1.643    -2.746    -0.566  C    
     26 C           1.386    -3.069    -1.916  C    
     27 Cl         -0.069    -3.865    -2.287  Cl   
     28 H          -0.377    -7.287    -2.642  H    
     29 H          -1.669    -8.488    -2.463  H    
     30 H          -1.764    -7.301    -3.775  H    
     31 H           0.121    -6.379    -5.008  H    
     32 H           3.077    -7.564    -7.732  H    
     33 H           0.492   -10.746    -4.448  H    
     34 H           1.855    -5.334    -7.806  H    
     35 H           4.196    -1.761    -3.260  H    
     36 H           4.607    -1.198    -0.949  H    
     37 H           2.998    -1.820     0.768  H    
     38 H           0.970    -2.996     0.164  H    
@<TRIPOS>BOND
     1    1    2 1
     2    2    3 1
     3    3    8 ar
     4    3    4 ar
     5    4    5 ar
     6    5    6 ar
     7    5   13 1
     8    6    7 ar
     9    7    8 ar
    10    7   10 1
    11    8    9 1
    12   10   11 2
    13   10   12 1
    14   13   14 2
    15   14   20 1
    16   14   15 1
    17   15   16 2
    18   15   17 1
    19   17   18 1
    20   17   21 1
    21   18   19 2
    22   18   20 1
    23   21   26 ar
    24   21   22 ar
    25   22   23 ar
    26   23   24 ar
    27   24   25 ar
    28   25   26 ar
    29   26   27 1
    30    1   28 1
    31    1   29 1
    32    1   30 1
    33    4   31 1
    34    6   32 1
    35    9   33 1
    36   13   34 1
    37   22   35 1
    38   23   36 1
    39   24   37 1
    40   25   38 1
@<TRIPOS>MOLECULE
ZINC01144967
 52 55 0 0 0
SMALL
NO_CHARGES


@<TRIPOS>ATOM
      1 C           1.488    -7.029    -7.209  C    
      2 O           2.284    -7.503    -6.119  O    
      3 C           3.009    -6.639    -5.326  C    
      4 C           3.086    -5.229    -5.489  C    
      5 C           3.839    -4.414    -4.616  C    
      6 C           4.514    -5.041    -3.548  C    
      7 C           4.459    -6.437    -3.361  C    
      8 C           3.725    -7.230    -4.265  C    
      9 O           3.680    -8.591    -4.088  O    
     10 C           4.688    -9.288    -4.852  C    
     11 C           4.636   -10.716    -4.459  C    
     12 C           5.462   -11.201    -3.426  C    
     13 C           5.412   -12.555    -3.054  C    
     14 C           4.533   -13.436    -3.704  C    
     15 C           3.699   -12.966    -4.728  C    
     16 C           3.745   -11.609    -5.100  C    
     17 F           2.877   -13.782    -5.333  F    
     18 Cl          5.275    -7.125    -2.042  Cl   
     19 C           3.935    -2.925    -4.829  C    
     20 C           5.337    -2.572    -5.150  C    
     21 C           5.944    -1.639    -4.382  C    
     22 O           5.403    -1.195    -3.235  O    
     23 C           4.101    -1.410    -2.932  C    
     24 C           3.305    -2.206    -3.698  C    
     25 C           1.946    -2.311    -3.434  C    
     26 O           1.203    -2.827    -4.263  O    
     27 C           1.308    -1.642    -2.306  C    
     28 C           2.312    -1.318    -1.172  C    
     29 C           3.614    -0.704    -1.751  C    
     30 N           7.090    -1.128    -4.653  N    
     31 C           5.800    -2.842    -6.330  C    
     32 N           6.206    -3.078    -7.380  N    
     33 H           0.712    -6.349    -6.852  H    
     34 H           1.005    -7.884    -7.676  H    
     35 H           2.115    -6.539    -7.957  H    
     36 H           2.591    -4.783    -6.261  H    
     37 H           5.068    -4.472    -2.902  H    
     38 H           4.502    -9.184    -5.926  H    
     39 H           5.690    -8.887    -4.661  H    
     40 H           6.104   -10.575    -2.929  H    
     41 H           6.012   -12.895    -2.305  H    
     42 H           4.510   -14.420    -3.425  H    
     43 H           3.125   -11.272    -5.844  H    
     44 H           3.329    -2.646    -5.705  H    
     45 H           0.854    -0.715    -2.665  H    
     46 H           0.509    -2.261    -1.887  H    
     47 H           1.859    -0.632    -0.454  H    
     48 H           2.553    -2.243    -0.638  H    
     49 H           4.373    -0.728    -0.964  H    
     50 H           3.440     0.342    -2.017  H    
     51 H           7.490    -0.521    -4.073  H    
     52 H           7.579    -1.440    -5.381  H    
@<TRIPOS>BOND
     1    1    2 1
     2    2    3 1
     3    3    8 ar
     4    3    4 ar
     5    4    5 ar
     6    5    6 ar
     7    5   19 1
     8    6    7 ar
     9    7    8 ar
    10    7   18 1
    11    8    9 1
    12    9   10 1
    13   10   11 1
    14   11   16 ar
    15   11   12 ar
    16   12   13 ar
    17   13   14 ar
    18   14   15 ar
    19   15   16 ar
    20   15   17 1
    21   19   24 1
    22   19   20 1
    23   20   21 2
    24   20   31 1
    25   21   22 1
    26   21   30 1
    27   22   23 1
    28   23   29 1
    29   23   24 2
    30   24   25 1
    31   25   26 2
    32   25   27 1
    33   27   28 1
    34   28   29 1
    35   31   32 3
    36    1   33 1
    37    1   34 1
    38    1   35 1
    39    4   36 1
    40    6   37 1
    41   10   38 1
    42   10   39 1
    43   12   40 1
    44   13   41 1
    45   14   42 1
    46   16   43 1
    47   19   44 1
    48   27   45 1
    49   27   46 1
    50   28   47 1
    51   28   48 1
    52   29   49 1
    53   29   50 1
    54   30   51 1
    55   30   52 1
@<TRIPOS>MOLECULE
ZINC01159834
 39 40 0 0 0
SMALL
NO_CHARGES


@<TRIPOS>ATOM
      1 C           0.128    -6.103    -5.557  C    
      2 C           0.344    -6.647    -4.190  C    
      3 C          -0.240    -7.882    -3.827  C    
      4 C          -0.072    -8.411    -2.535  C    
      5 C           0.698    -7.713    -1.586  C    
      6 C           1.287    -6.485    -1.930  C    
      7 C           1.104    -5.927    -3.222  C    
      8 N           1.687    -4.734    -3.575  N    
      9 C           1.788    -3.622    -2.849  C    
     10 O           1.313    -3.538    -1.718  O    
     11 C           2.431    -2.466    -3.449  C    
     12 O           2.121    -1.254    -2.732  O    
     13 C           2.784    -0.135    -3.168  C    
     14 C           2.501     0.458    -4.413  C    
     15 C           3.168     1.625    -4.843  C    
     16 C           4.127     2.225    -3.980  C    
     17 C           4.397     1.656    -2.705  C    
     18 C           3.718     0.479    -2.316  C    
     19 C           5.378     2.276    -1.775  C    
     20 Br          5.041     3.774    -4.494  Br   
     21 C           2.808     2.151    -6.188  C    
     22 Cl          0.908    -8.357    -0.034  Cl   
     23 H          -0.369    -5.133    -5.492  H    
     24 H          -0.491    -6.762    -6.170  H    
     25 H           1.089    -5.979    -6.058  H    
     26 H          -0.793    -8.413    -4.501  H    
     27 H          -0.503    -9.305    -2.295  H    
     28 H           1.868    -6.006    -1.240  H    
     29 H           1.981    -4.664    -4.497  H    
     30 H           3.508    -2.648    -3.457  H    
     31 H           2.082    -2.371    -4.480  H    
     32 H           1.795     0.025    -5.014  H    
     33 H           3.896     0.058    -1.401  H    
     34 H           6.362     2.309    -2.247  H    
     35 H           5.474     1.726    -0.834  H    
     36 H           5.063     3.296    -1.534  H    
     37 H           3.024     1.391    -6.945  H    
     38 H           3.346     3.054    -6.465  H    
     39 H           1.737     2.382    -6.217  H    
@<TRIPOS>BOND
     1    1    2 1
     2    2    7 ar
     3    2    3 ar
     4    3    4 ar
     5    4    5 ar
     6    5    6 ar
     7    5   22 1
     8    6    7 ar
     9    7    8 1
    10    8    9 1
    11    9   10 2
    12    9   11 1
    13   11   12 1
    14   12   13 1
    15   13   18 ar
    16   13   14 ar
    17   14   15 ar
    18   15   16 ar
    19   15   21 1
    20   16   17 ar
    21   16   20 1
    22   17   18 ar
    23   17   19 1
    24    1   23 1
    25    1   24 1
    26    1   25 1
    27    3   26 1
    28    4   27 1
    29    6   28 1
    30    8   29 1
    31   11   30 1
    32   11   31 1
    33   14   32 1
    34   18   33 1
    35   19   34 1
    36   19   35 1
    37   19   36 1
    38   21   37 1
    39   21   38 1
    40   21   39 1
@<TRIPOS>MOLECULE
ZINC01162643
 50 53 0 0 0
SMALL
NO_CHARGES


@<TRIPOS>ATOM
      1 C           5.348    -6.723    -6.879  C    
      2 C           4.729    -5.689    -6.055  C    
      3 C           4.484    -4.411    -6.447  C    
      4 C           3.847    -3.482    -5.476  C    
      5 N           3.641    -4.040    -4.199  N    
      6 C           3.907    -5.281    -3.923  C    
      7 S           3.623    -5.875    -2.354  S    
      8 N           4.420    -6.064    -4.829  N    
      9 C           4.536    -2.139    -5.313  C    
     10 C           5.889    -1.998    -4.850  C    
     11 C           6.707    -3.096    -4.473  C    
     12 C           8.037    -2.926    -4.044  C    
     13 C           8.589    -1.640    -3.961  C    
     14 C           7.806    -0.527    -4.300  C    
     15 C           6.473    -0.696    -4.744  C    
     16 C           5.717     0.446    -5.069  C    
     17 C           4.392     0.316    -5.496  C    
     18 C           3.809    -0.955    -5.651  C    
     19 O           2.495    -0.986    -6.063  O    
     20 C           2.320    -0.831    -7.485  C    
     21 C           4.779    -3.947    -7.687  C    
     22 O           3.917    -4.030    -8.550  O    
     23 N           5.983    -3.421    -7.868  N    
     24 C           6.561    -2.824    -8.955  C    
     25 C           5.891    -2.437   -10.142  C    
     26 C           6.592    -1.799   -11.185  C    
     27 C           7.968    -1.533   -11.058  C    
     28 C           8.648    -1.917    -9.887  C    
     29 C           7.942    -2.550    -8.845  C    
     30 F           9.924    -1.680    -9.746  F    
     31 F           8.606    -0.928   -12.023  F    
     32 H           6.288    -7.025    -6.417  H    
     33 H           5.559    -6.407    -7.903  H    
     34 H           4.685    -7.591    -6.934  H    
     35 H           2.830    -3.349    -5.856  H    
     36 H           3.204    -3.522    -3.555  H    
     37 H           4.601    -6.948    -4.584  H    
     38 H           6.356    -4.046    -4.493  H    
     39 H           8.600    -3.743    -3.787  H    
     40 H           9.554    -1.514    -3.644  H    
     41 H           8.216     0.408    -4.212  H    
     42 H           6.117     1.384    -4.988  H    
     43 H           3.851     1.157    -5.711  H    
     44 H           2.635     0.164    -7.821  H    
     45 H           1.256    -0.945    -7.715  H    
     46 H           2.871    -1.589    -8.041  H    
     47 H           6.564    -3.471    -7.090  H    
     48 H           4.891    -2.598   -10.264  H    
     49 H           6.091    -1.521   -12.034  H    
     50 H           8.450    -2.816    -7.997  H    
@<TRIPOS>BOND
     1    1    2 1
     2    2    8 1
     3    2    3 2
     4    3    4 1
     5    3   21 1
     6    4    5 1
     7    4    9 1
     8    5    6 1
     9    6    7 2
    10    6    8 1
    11    9   18 ar
    12    9   10 ar
    13   10   15 ar
    14   10   11 ar
    15   11   12 ar
    16   12   13 ar
    17   13   14 ar
    18   14   15 ar
    19   15   16 ar
    20   16   17 ar
    21   17   18 ar
    22   18   19 1
    23   19   20 1
    24   21   22 2
    25   21   23 1
    26   23   24 1
    27   24   29 ar
    28   24   25 ar
    29   25   26 ar
    30   26   27 ar
    31   27   28 ar
    32   27   31 1
    33   28   29 ar
    34   28   30 1
    35    1   32 1
    36    1   33 1
    37    1   34 1
    38    4   35 1
    39    5   36 1
    40    8   37 1
    41   11   38 1
    42   12   39 1
    43   13   40 1
    44   14   41 1
    45   16   42 1
    46   17   43 1
    47   20   44 1
    48   20   45 1
    49   20   46 1
    50   23   47 1
    51   25   48 1
    52   26   49 1
    53   29   50 1
@<TRIPOS>MOLECULE
ZINC01175462
 57 60 0 0 0
SMALL
NO_CHARGES


@<TRIPOS>ATOM
      1 C           3.656    -2.902    -2.306  C    
      2 C           3.893    -3.830    -3.412  C    
      3 C           4.706    -4.916    -3.381  C    
      4 C           4.836    -5.752    -4.598  C    
      5 C           4.163    -5.221    -5.812  C    
      6 C           3.355    -4.138    -5.675  C    
      7 N           3.240    -3.538    -4.516  N    
      8 C           2.614    -3.564    -6.804  C    
      9 C           2.233    -4.637    -7.881  C    
     10 C           3.524    -5.467    -8.216  C    
     11 C           4.322    -5.822    -7.044  C    
     12 O           5.276    -6.566    -7.241  O    
     13 C           1.699    -3.926    -9.166  C    
     14 C           1.103    -5.578    -7.340  C    
     15 C           4.358    -7.148    -4.319  C    
     16 C           3.006    -7.412    -3.998  C    
     17 C           2.563    -8.722    -3.732  C    
     18 C           3.453    -9.824    -3.760  C    
     19 C           4.810    -9.550    -4.070  C    
     20 C           5.250    -8.244    -4.351  C    
     21 N           3.014   -11.088    -3.504  N    
     22 O           3.752   -12.044    -3.531  O    
     23 O           1.762   -11.350    -3.237  O    
     24 C           5.414    -5.262    -2.276  C    
     25 O           4.839    -5.933    -1.430  O    
     26 N           6.664    -4.826    -2.172  N    
     27 C           7.611    -4.997    -1.193  C    
     28 C           7.524    -5.926    -0.124  C    
     29 C           8.559    -6.036     0.825  C    
     30 C           9.705    -5.227     0.725  C    
     31 C           9.811    -4.309    -0.335  C    
     32 C           8.776    -4.198    -1.287  C    
     33 F           8.929    -3.323    -2.251  F    
     34 F          10.663    -5.337     1.609  F    
     35 H           3.950    -1.893    -2.609  H    
     36 H           4.208    -3.143    -1.394  H    
     37 H           2.591    -2.898    -2.053  H    
     38 H           5.904    -5.768    -4.830  H    
     39 H           2.664    -2.797    -4.481  H    
     40 H           1.702    -3.059    -6.461  H    
     41 H           3.256    -2.798    -7.252  H    
     42 H           3.242    -6.378    -8.752  H    
     43 H           4.175    -4.888    -8.878  H    
     44 H           0.801    -3.345    -8.940  H    
     45 H           1.448    -4.659    -9.935  H    
     46 H           2.447    -3.245    -9.576  H    
     47 H           1.429    -6.119    -6.450  H    
     48 H           0.820    -6.314    -8.096  H    
     49 H           0.212    -5.001    -7.077  H    
     50 H           2.328    -6.647    -3.963  H    
     51 H           1.573    -8.860    -3.515  H    
     52 H           5.494   -10.308    -4.101  H    
     53 H           6.237    -8.100    -4.581  H    
     54 H           6.951    -4.258    -2.907  H    
     55 H           6.721    -6.545    -0.023  H    
     56 H           8.475    -6.717     1.587  H    
     57 H          10.646    -3.724    -0.409  H    
@<TRIPOS>BOND
     1    1    2 1
     2    2    7 1
     3    2    3 2
     4    3    4 1
     5    3   24 1
     6    4    5 1
     7    4   15 1
     8    5   11 1
     9    5    6 2
    10    6    7 1
    11    6    8 1
    12    8    9 1
    13    9   10 1
    14    9   13 1
    15    9   14 1
    16   10   11 1
    17   11   12 2
    18   15   20 ar
    19   15   16 ar
    20   16   17 ar
    21   17   18 ar
    22   18   19 ar
    23   18   21 1
    24   19   20 ar
    25   21   22 2
    26   21   23 1
    27   24   25 2
    28   24   26 1
    29   26   27 1
    30   27   32 ar
    31   27   28 ar
    32   28   29 ar
    33   29   30 ar
    34   30   31 ar
    35   30   34 1
    36   31   32 ar
    37   32   33 1
    38    1   35 1
    39    1   36 1
    40    1   37 1
    41    4   38 1
    42    7   39 1
    43    8   40 1
    44    8   41 1
    45   10   42 1
    46   10   43 1
    47   13   44 1
    48   13   45 1
    49   13   46 1
    50   14   47 1
    51   14   48 1
    52   14   49 1
    53   16   50 1
    54   17   51 1
    55   19   52 1
    56   20   53 1
    57   26   54 1
    58   28   55 1
    59   29   56 1
    60   31   57 1
@<TRIPOS>MOLECULE
ZINC01175792
 50 52 0 0 0
SMALL
NO_CHARGES


@<TRIPOS>ATOM
      1 C           4.411    -7.075    -1.202  C    
      2 C           4.743    -6.101    -2.272  C    
      3 C           5.597    -5.008    -1.996  C    
      4 C           5.944    -4.064    -2.992  C    
      5 C           5.405    -4.234    -4.289  C    
      6 C           4.555    -5.311    -4.581  C    
      7 C           4.218    -6.247    -3.583  C    
      8 N           3.394    -7.284    -3.919  N    
      9 C           2.047    -7.272    -3.788  C    
     10 C           1.574    -8.514    -4.186  C    
     11 C           2.658    -9.287    -4.598  C    
     12 C           3.793    -8.486    -4.407  C    
     13 C           5.201    -8.847    -4.701  C    
     14 C           2.622   -10.621    -5.001  C    
     15 C           1.658   -11.266    -5.705  C    
     16 C           1.611   -12.648    -5.726  C    
     17 O           2.561   -13.364    -5.437  O    
     18 N           0.476   -13.275    -6.005  N    
     19 C          -0.620   -12.616    -6.394  C    
     20 S          -2.034   -13.570    -6.458  S    
     21 N          -0.536   -11.278    -6.679  N    
     22 C           0.620   -10.637    -6.383  C    
     23 O           0.820    -9.514    -6.834  O    
     24 C          -1.634   -10.557    -7.317  C    
     25 C          -2.343    -9.734    -6.352  C    
     26 C          -2.417    -8.396    -6.411  C    
     27 C           1.207    -6.156    -3.303  C    
     28 C           6.807    -2.977    -2.699  C    
     29 O           7.166    -2.076    -3.643  O    
     30 O           7.334    -2.791    -1.463  O    
     31 H           3.335    -7.073    -1.025  H    
     32 H           4.907    -6.845    -0.256  H    
     33 H           4.717    -8.075    -1.508  H    
     34 H           5.975    -4.902    -1.051  H    
     35 H           5.628    -3.577    -5.041  H    
     36 H           4.183    -5.414    -5.530  H    
     37 H           0.597    -8.812    -4.155  H    
     38 H           5.621    -8.126    -5.405  H    
     39 H           5.291    -9.841    -5.143  H    
     40 H           5.786    -8.824    -3.779  H    
     41 H           3.392   -11.160    -4.679  H    
     42 H           0.444   -14.242    -5.929  H    
     43 H          -1.252    -9.963    -8.154  H    
     44 H          -2.369   -11.224    -7.770  H    
     45 H          -2.799   -10.194    -5.596  H    
     46 H          -2.923    -7.895    -5.725  H    
     47 H          -1.972    -7.886    -7.138  H    
     48 H           1.530    -5.848    -2.309  H    
     49 H           0.157    -6.447    -3.252  H    
     50 H           1.300    -5.311    -3.983  H    
@<TRIPOS>BOND
     1    1    2 1
     2    2    7 ar
     3    2    3 ar
     4    3    4 ar
     5    4    5 ar
     6    4   28 1
     7    5    6 ar
     8    6    7 ar
     9    7    8 1
    10    8   12 1
    11    8    9 1
    12    9   10 2
    13    9   27 1
    14   10   11 1
    15   11   12 2
    16   11   14 1
    17   12   13 1
    18   14   15 2
    19   15   22 1
    20   15   16 1
    21   16   17 2
    22   16   18 1
    23   18   19 1
    24   19   20 2
    25   19   21 1
    26   21   22 1
    27   21   24 1
    28   22   23 2
    29   24   25 1
    30   25   26 2
    31   28   29 2
    32   28   30 1
    33    1   31 1
    34    1   32 1
    35    1   33 1
    36    3   34 1
    37    5   35 1
    38    6   36 1
    39   10   37 1
    40   13   38 1
    41   13   39 1
    42   13   40 1
    43   14   41 1
    44   18   42 1
    45   24   43 1
    46   24   44 1
    47   25   45 1
    48   26   46 1
    49   26   47 1
    50   27   48 1
    51   27   49 1
    52   27   50 1
@<TRIPOS>MOLECULE
ZINC01181015
 39 41 0 0 0
SMALL
NO_CHARGES


@<TRIPOS>ATOM
      1 C           4.809   -10.013    -7.272  C    
      2 O           5.180   -10.109    -5.887  O    
      3 C           4.208    -9.663    -5.032  C    
      4 C           4.135    -8.292    -4.702  C    
      5 C           3.160    -7.800    -3.799  C    
      6 C           2.229    -8.723    -3.251  C    
      7 C           2.315   -10.093    -3.565  C    
      8 C           3.303   -10.568    -4.444  C    
      9 O           3.351   -11.900    -4.713  O    
     10 Br          0.889    -8.212    -2.056  Br   
     11 C           3.059    -6.439    -3.519  C    
     12 C           4.059    -5.582    -3.215  C    
     13 C           3.899    -4.251    -3.021  C    
     14 O           2.828    -3.674    -3.171  O    
     15 N           5.012    -3.607    -2.698  N    
     16 C           6.035    -4.438    -2.594  C    
     17 O           7.182    -4.122    -2.308  O    
     18 S           5.670    -6.067    -2.900  S    
     19 C           5.084    -2.174    -2.471  C    
     20 C           4.912    -1.284    -3.663  C    
     21 C           4.961    -1.801    -4.981  C    
     22 C           4.801    -0.965    -6.099  C    
     23 C           4.598     0.412    -5.922  C    
     24 C           4.569     0.953    -4.628  C    
     25 C           4.733     0.120    -3.501  C    
     26 Cl          4.706     0.875    -1.981  Cl   
     27 H           3.908   -10.591    -7.485  H    
     28 H           5.626   -10.417    -7.872  H    
     29 H           4.655    -8.976    -7.568  H    
     30 H           4.790    -7.649    -5.154  H    
     31 H           1.652   -10.753    -3.148  H    
     32 H           4.092   -12.022    -5.344  H    
     33 H           2.135    -6.073    -3.519  H    
     34 H           4.310    -1.931    -1.738  H    
     35 H           6.037    -1.902    -2.011  H    
     36 H           5.122    -2.796    -5.151  H    
     37 H           4.832    -1.359    -7.041  H    
     38 H           4.479     1.021    -6.735  H    
     39 H           4.431     1.960    -4.514  H    
@<TRIPOS>BOND
     1    1    2 1
     2    2    3 1
     3    3    8 ar
     4    3    4 ar
     5    4    5 ar
     6    5    6 ar
     7    5   11 1
     8    6    7 ar
     9    6   10 1
    10    7    8 ar
    11    8    9 1
    12   11   12 2
    13   12   18 1
    14   12   13 1
    15   13   14 2
    16   13   15 1
    17   15   16 1
    18   15   19 1
    19   16   17 2
    20   16   18 1
    21   19   20 1
    22   20   25 ar
    23   20   21 ar
    24   21   22 ar
    25   22   23 ar
    26   23   24 ar
    27   24   25 ar
    28   25   26 1
    29    1   27 1
    30    1   28 1
    31    1   29 1
    32    4   30 1
    33    7   31 1
    34    9   32 1
    35   11   33 1
    36   19   34 1
    37   19   35 1
    38   21   36 1
    39   22   37 1
    40   23   38 1
    41   24   39 1
@<TRIPOS>MOLECULE
ZINC01183004
 42 45 0 0 0
SMALL
NO_CHARGES


@<TRIPOS>ATOM
      1 C           3.052    -3.765    -1.629  C    
      2 C           3.717    -4.918    -2.436  C    
      3 C           2.893    -6.110    -2.625  C    
      4 O           1.684    -6.056    -2.461  O    
      5 N           3.501    -7.234    -2.991  N    
      6 C           2.945    -8.442    -3.259  C    
      7 C           3.690    -9.606    -3.468  C    
      8 N           2.970   -10.725    -3.735  N    
      9 C           1.627   -10.577    -3.780  C    
     10 S           1.302    -8.916    -3.451  S    
     11 C           0.696   -11.613    -4.047  C    
     12 C          -0.677   -11.337    -4.267  C    
     13 C          -1.588   -12.381    -4.522  C    
     14 C          -1.141   -13.713    -4.567  C    
     15 C           0.219   -14.004    -4.352  C    
     16 C           1.130   -12.963    -4.098  C    
     17 N           4.215    -4.462    -3.720  N    
     18 C           3.486    -3.914    -4.693  C    
     19 O           2.280    -3.705    -4.690  O    
     20 C           4.296    -3.617    -5.747  C    
     21 C           4.049    -3.009    -6.991  C    
     22 C           5.123    -2.844    -7.890  C    
     23 C           6.422    -3.279    -7.537  C    
     24 C           6.657    -3.887    -6.286  C    
     25 C           5.575    -4.039    -5.394  C    
     26 C           5.477    -4.553    -4.136  C    
     27 O           6.421    -5.041    -3.527  O    
     28 H           2.140    -3.408    -2.110  H    
     29 H           3.748    -2.930    -1.541  H    
     30 H           2.808    -4.105    -0.621  H    
     31 H           4.559    -5.230    -1.806  H    
     32 H           4.467    -7.189    -3.053  H    
     33 H           4.709    -9.626    -3.415  H    
     34 H          -1.032   -10.376    -4.245  H    
     35 H          -2.577   -12.168    -4.679  H    
     36 H          -1.804   -14.471    -4.749  H    
     37 H           0.545   -14.972    -4.378  H    
     38 H           2.112   -13.206    -3.938  H    
     39 H           3.107    -2.694    -7.239  H    
     40 H           4.963    -2.400    -8.796  H    
     41 H           7.192    -3.162    -8.197  H    
     42 H           7.597    -4.206    -6.027  H    
@<TRIPOS>BOND
     1    1    2 1
     2    2    3 1
     3    2   17 1
     4    3    4 2
     5    3    5 1
     6    5    6 1
     7    6   10 1
     8    6    7 2
     9    7    8 1
    10    8    9 2
    11    9   10 1
    12    9   11 1
    13   11   16 ar
    14   11   12 ar
    15   12   13 ar
    16   13   14 ar
    17   14   15 ar
    18   15   16 ar
    19   17   26 1
    20   17   18 1
    21   18   19 2
    22   18   20 1
    23   20   25 ar
    24   20   21 ar
    25   21   22 ar
    26   22   23 ar
    27   23   24 ar
    28   24   25 ar
    29   25   26 1
    30   26   27 2
    31    1   28 1
    32    1   29 1
    33    1   30 1
    34    2   31 1
    35    5   32 1
    36    7   33 1
    37   12   34 1
    38   13   35 1
    39   14   36 1
    40   15   37 1
    41   16   38 1
    42   21   39 1
    43   22   40 1
    44   23   41 1
    45   24   42 1
@<TRIPOS>MOLECULE
ZINC01186246
 49 51 0 0 0
SMALL
NO_CHARGES


@<TRIPOS>ATOM
      1 C           9.485    -1.322    -7.360  C    
      2 C           8.663    -1.741    -6.190  C    
      3 C           8.374    -0.779    -5.192  C    
      4 C           7.603    -1.112    -4.069  C    
      5 C           7.105    -2.413    -3.926  C    
      6 C           7.376    -3.398    -4.901  C    
      7 C           8.161    -3.072    -6.047  C    
      8 C           8.458    -4.100    -7.088  C    
      9 N           6.841    -4.652    -4.688  N    
     10 C           5.621    -4.974    -5.178  C    
     11 O           5.029    -4.167    -5.891  O    
     12 C           5.027    -6.200    -4.883  C    
     13 C           3.689    -6.393    -5.028  C    
     14 C           2.894    -7.412    -4.501  C    
     15 C           3.034    -7.861    -3.164  C    
     16 C           2.188    -8.855    -2.644  C    
     17 C           1.180    -9.422    -3.447  C    
     18 C           0.994    -8.946    -4.760  C    
     19 C           1.840    -7.949    -5.279  C    
     20 O           0.353   -10.375    -2.914  O    
     21 C           0.581   -11.736    -3.344  C    
     22 C           1.922   -12.309    -2.808  C    
     23 C          -0.598   -12.508    -2.898  C    
     24 O          -1.827   -12.164    -3.350  O    
     25 C           5.886    -7.160    -4.382  C    
     26 O           5.650    -8.359    -4.443  O    
     27 N           7.082    -6.833    -3.912  N    
     28 C           7.552    -5.587    -3.991  C    
     29 S           9.095    -5.346    -3.301  S    
     30 O          -0.515   -13.539    -2.027  O    
     31 H          10.394    -1.922    -7.409  H    
     32 H           9.783    -0.273    -7.313  H    
     33 H           8.916    -1.461    -8.281  H    
     34 H           8.723     0.179    -5.272  H    
     35 H           7.402    -0.405    -3.356  H    
     36 H           6.541    -2.642    -3.102  H    
     37 H           8.054    -3.778    -8.049  H    
     38 H           8.032    -5.078    -6.868  H    
     39 H           9.537    -4.232    -7.181  H    
     40 H           3.182    -5.715    -5.553  H    
     41 H           3.739    -7.449    -2.547  H    
     42 H           2.305    -9.166    -1.677  H    
     43 H           0.243    -9.326    -5.341  H    
     44 H           1.684    -7.625    -6.238  H    
     45 H           0.599   -11.795    -4.438  H    
     46 H           2.764   -11.764    -3.240  H    
     47 H           2.025   -13.361    -3.081  H    
     48 H           1.968   -12.217    -1.720  H    
     49 H           7.653    -7.530    -3.551  H    
@<TRIPOS>BOND
     1    1    2 1
     2    2    7 ar
     3    2    3 ar
     4    3    4 ar
     5    4    5 ar
     6    5    6 ar
     7    6    7 ar
     8    6    9 1
     9    7    8 1
    10    9   28 1
    11    9   10 1
    12   10   11 2
    13   10   12 1
    14   12   13 2
    15   12   25 1
    16   13   14 1
    17   14   19 ar
    18   14   15 ar
    19   15   16 ar
    20   16   17 ar
    21   17   18 ar
    22   17   20 1
    23   18   19 ar
    24   20   21 1
    25   21   22 1
    26   21   23 1
    27   23   24 2
    28   23   30 1
    29   25   26 2
    30   25   27 1
    31   27   28 1
    32   28   29 2
    33    1   31 1
    34    1   32 1
    35    1   33 1
    36    3   34 1
    37    4   35 1
    38    5   36 1
    39    8   37 1
    40    8   38 1
    41    8   39 1
    42   13   40 1
    43   15   41 1
    44   16   42 1
    45   18   43 1
    46   19   44 1
    47   21   45 1
    48   22   46 1
    49   22   47 1
    50   22   48 1
    51   27   49 1
@<TRIPOS>MOLECULE
ZINC01188841
 47 50 0 0 0
SMALL
NO_CHARGES


@<TRIPOS>ATOM
      1 C           2.060    -2.620    -5.541  C    
      2 C           3.279    -2.830    -6.209  C    
      3 C           3.856    -4.115    -6.237  C    
      4 C           3.223    -5.225    -5.612  C    
      5 C           1.993    -4.982    -4.942  C    
      6 C           1.418    -3.698    -4.906  C    
      7 C           3.796    -6.502    -5.652  C    
      8 O           5.002    -6.605    -5.867  O    
      9 N           3.048    -7.590    -5.486  N    
     10 C           3.416    -8.901    -5.473  C    
     11 C           2.485    -9.957    -5.461  C    
     12 C           3.082   -11.231    -5.434  C    
     13 C           4.461   -11.224    -5.406  C    
     14 S           5.000    -9.594    -5.442  S    
     15 C           5.062   -12.543    -5.407  C    
     16 C           3.820   -13.472    -5.312  C    
     17 C           2.550   -12.590    -5.472  C    
     18 C           1.117    -9.769    -5.516  C    
     19 O           0.716    -9.508    -6.644  O    
     20 N           0.281    -9.807    -4.460  N    
     21 C           0.723   -10.077    -3.095  C    
     22 C          -0.072   -11.247    -2.452  C    
     23 C          -1.601   -11.041    -2.591  C    
     24 C          -1.987   -10.720    -4.055  C    
     25 C          -1.143    -9.538    -4.602  C    
     26 H           1.639    -1.684    -5.521  H    
     27 H           3.744    -2.048    -6.680  H    
     28 H           4.744    -4.235    -6.740  H    
     29 H           1.503    -5.738    -4.452  H    
     30 H           0.532    -3.544    -4.417  H    
     31 H           2.094    -7.431    -5.381  H    
     32 H           5.612   -12.701    -6.337  H    
     33 H           5.728   -12.665    -4.550  H    
     34 H           3.854   -14.244    -6.087  H    
     35 H           3.800   -13.966    -4.335  H    
     36 H           1.840   -12.754    -4.656  H    
     37 H           2.059   -12.772    -6.433  H    
     38 H           1.783   -10.321    -3.020  H    
     39 H           0.568    -9.177    -2.494  H    
     40 H           0.211   -12.186    -2.938  H    
     41 H           0.183   -11.323    -1.390  H    
     42 H          -2.127   -11.945    -2.269  H    
     43 H          -1.918   -10.218    -1.946  H    
     44 H          -1.818   -11.602    -4.683  H    
     45 H          -3.050   -10.465    -4.106  H    
     46 H          -1.387    -8.631    -4.041  H    
     47 H          -1.451    -9.357    -5.637  H    
@<TRIPOS>BOND
     1    1    6 ar
     2    1    2 ar
     3    2    3 ar
     4    3    4 ar
     5    4    5 ar
     6    4    7 1
     7    5    6 ar
     8    7    8 2
     9    7    9 1
    10    9   10 1
    11   10   14 1
    12   10   11 2
    13   11   12 1
    14   11   18 1
    15   12   17 1
    16   12   13 2
    17   13   14 1
    18   13   15 1
    19   15   16 1
    20   16   17 1
    21   18   19 2
    22   18   20 1
    23   20   25 1
    24   20   21 1
    25   21   22 1
    26   22   23 1
    27   23   24 1
    28   24   25 1
    29    1   26 1
    30    2   27 1
    31    3   28 1
    32    5   29 1
    33    6   30 1
    34    9   31 1
    35   15   32 1
    36   15   33 1
    37   16   34 1
    38   16   35 1
    39   17   36 1
    40   17   37 1
    41   21   38 1
    42   21   39 1
    43   22   40 1
    44   22   41 1
    45   23   42 1
    46   23   43 1
    47   24   44 1
    48   24   45 1
    49   25   46 1
    50   25   47 1
@<TRIPOS>MOLECULE
ZINC01195916
 39 42 0 0 0
SMALL
NO_CHARGES


@<TRIPOS>ATOM
      1 C          -2.091    -4.191    -5.015  C    
      2 C          -1.434    -2.946    -4.546  C    
      3 C          -2.180    -1.902    -3.954  C    
      4 C          -1.519    -0.737    -3.529  C    
      5 N          -0.179    -0.625    -3.704  N    
      6 C           0.592    -1.596    -4.272  C    
      7 C          -0.038    -2.785    -4.701  C    
      8 N           1.931    -1.475    -4.445  N    
      9 C           2.711    -0.437    -4.164  C    
     10 O           2.272     0.615    -3.717  O    
     11 C           4.126    -0.506    -4.459  C    
     12 S           5.107    -0.271    -2.952  S    
     13 C           6.680    -0.425    -3.603  C    
     14 N           7.007     0.070    -4.785  N    
     15 C           8.280    -0.080    -5.239  C    
     16 C           9.190    -0.750    -4.415  C    
     17 C          10.400    -0.776    -5.094  C    
     18 C          11.659    -1.310    -4.767  C    
     19 C          12.711    -1.160    -5.695  C    
     20 C          12.499    -0.487    -6.919  C    
     21 C          11.229     0.040    -7.240  C    
     22 C          10.184    -0.110    -6.309  C    
     23 N           8.900     0.297    -6.371  N    
     24 N           8.749    -1.192    -3.258  N    
     25 N           7.579    -1.028    -2.903  N    
     26 H          -1.921    -4.312    -6.086  H    
     27 H          -3.168    -4.177    -4.839  H    
     28 H          -1.669    -5.050    -4.489  H    
     29 H          -3.193    -1.982    -3.825  H    
     30 H          -2.039     0.024    -3.092  H    
     31 H           0.519    -3.530    -5.130  H    
     32 H           2.373    -2.244    -4.836  H    
     33 H           4.392    -1.470    -4.901  H    
     34 H           4.367     0.276    -5.183  H    
     35 H          11.804    -1.790    -3.876  H    
     36 H          13.635    -1.538    -5.475  H    
     37 H          13.270    -0.384    -7.582  H    
     38 H          11.070     0.529    -8.124  H    
     39 H           8.491     0.778    -7.106  H    
@<TRIPOS>BOND
     1    1    2 1
     2    2    7 ar
     3    2    3 ar
     4    3    4 ar
     5    4    5 ar
     6    5    6 ar
     7    6    7 ar
     8    6    8 1
     9    8    9 1
    10    9   10 2
    11    9   11 1
    12   11   12 1
    13   12   13 1
    14   13   25 ar
    15   13   14 ar
    16   14   15 ar
    17   15   23 1
    18   15   16 ar
    19   16   17 1
    20   16   24 ar
    21   17   22 ar
    22   17   18 ar
    23   18   19 ar
    24   19   20 ar
    25   20   21 ar
    26   21   22 ar
    27   22   23 1
    28   24   25 ar
    29    1   26 1
    30    1   27 1
    31    1   28 1
    32    3   29 1
    33    4   30 1
    34    7   31 1
    35    8   32 1
    36   11   33 1
    37   11   34 1
    38   18   35 1
    39   19   36 1
    40   20   37 1
    41   21   38 1
    42   23   39 1
@<TRIPOS>MOLECULE
ZINC01219340
 41 43 0 0 0
SMALL
NO_CHARGES


@<TRIPOS>ATOM
      1 C           6.498    -8.343    -4.546  C    
      2 C           7.603    -7.776    -5.207  C    
      3 C           7.448    -6.604    -5.974  C    
      4 C           6.179    -5.995    -6.053  C    
      5 C           5.074    -6.561    -5.387  C    
      6 C           5.216    -7.756    -4.635  C    
      7 N           4.217    -8.393    -3.948  N    
      8 C           2.892    -8.289    -4.028  C    
      9 O           2.346    -7.525    -4.815  O    
     10 C           2.093    -9.084    -3.204  C    
     11 C           2.463    -9.254    -1.843  C    
     12 C           1.690   -10.029    -0.962  C    
     13 C           0.522   -10.667    -1.428  C    
     14 C           0.132   -10.518    -2.773  C    
     15 C           0.900    -9.733    -3.658  C    
     16 Cl          0.378    -9.682    -5.279  Cl   
     17 Cl         -0.409   -11.606    -0.373  Cl   
     18 S           8.825    -5.883    -6.758  S    
     19 O           8.424    -4.974    -8.001  O    
     20 O           9.743    -7.017    -7.395  O    
     21 N           9.763    -4.973    -5.691  N    
     22 C           9.416    -3.644    -5.316  C    
     23 C          10.610    -3.168    -4.469  C    
     24 C          11.226    -4.473    -3.937  C    
     25 C          10.902    -5.504    -5.032  C    
     26 H           6.631    -9.199    -4.003  H    
     27 H           8.520    -8.224    -5.125  H    
     28 H           6.056    -5.131    -6.589  H    
     29 H           4.174    -6.078    -5.444  H    
     30 H           4.528    -9.068    -3.322  H    
     31 H           3.301    -8.797    -1.476  H    
     32 H           1.983   -10.134     0.015  H    
     33 H          -0.713   -10.996    -3.107  H    
     34 H           9.275    -2.999    -6.187  H    
     35 H           8.503    -3.658    -4.713  H    
     36 H          11.332    -2.639    -5.099  H    
     37 H          10.295    -2.509    -3.656  H    
     38 H          12.302    -4.376    -3.776  H    
     39 H          10.747    -4.759    -2.994  H    
     40 H          10.698    -6.485    -4.596  H    
     41 H          11.729    -5.581    -5.745  H    
@<TRIPOS>BOND
     1    1    6 ar
     2    1    2 ar
     3    2    3 ar
     4    3    4 ar
     5    3   18 1
     6    4    5 ar
     7    5    6 ar
     8    6    7 1
     9    7    8 1
    10    8    9 2
    11    8   10 1
    12   10   15 ar
    13   10   11 ar
    14   11   12 ar
    15   12   13 ar
    16   13   14 ar
    17   13   17 1
    18   14   15 ar
    19   15   16 1
    20   18   19 2
    21   18   20 2
    22   18   21 1
    23   21   25 1
    24   21   22 1
    25   22   23 1
    26   23   24 1
    27   24   25 1
    28    1   26 1
    29    2   27 1
    30    4   28 1
    31    5   29 1
    32    7   30 1
    33   11   31 1
    34   12   32 1
    35   14   33 1
    36   22   34 1
    37   22   35 1
    38   23   36 1
    39   23   37 1
    40   24   38 1
    41   24   39 1
    42   25   40 1
    43   25   41 1
@<TRIPOS>MOLECULE
ZINC01223310
 51 54 0 0 0
SMALL
NO_CHARGES


@<TRIPOS>ATOM
      1 C           2.963    -5.748    -7.491  C    
      2 C           2.923    -6.141    -6.071  C    
      3 C           2.593    -7.390    -5.526  C    
      4 N           2.731    -7.326    -4.187  N    
      5 C           3.135    -6.098    -3.836  C    
      6 C           3.250    -5.323    -4.991  C    
      7 C           3.642    -3.976    -4.906  C    
      8 C           3.960    -3.403    -3.644  C    
      9 C           3.856    -4.225    -2.487  C    
     10 C           3.431    -5.568    -2.572  C    
     11 C           4.365    -2.072    -3.561  C    
     12 N           4.781    -1.486    -2.502  N    
     13 N           5.078    -0.340    -2.775  N    
     14 C           4.853    -0.160    -4.015  C    
     15 O           4.376    -1.248    -4.605  O    
     16 S           5.215     1.319    -4.791  S    
     17 C           4.665     0.963    -6.489  C    
     18 C           5.454    -0.069    -7.174  C    
     19 O           6.671     0.052    -7.065  O    
     20 N           4.966    -1.101    -7.894  N    
     21 C           3.635    -1.109    -8.485  C    
     22 C           3.723    -1.301   -10.026  C    
     23 C           4.566    -2.554   -10.408  C    
     24 C           5.945    -2.513    -9.690  C    
     25 C           5.763    -2.295    -8.166  C    
     26 C           4.723    -2.691   -11.944  C    
     27 C           2.175    -8.598    -6.248  C    
     28 H           2.308    -4.891    -7.651  H    
     29 H           2.643    -6.557    -8.146  H    
     30 H           3.984    -5.473    -7.757  H    
     31 H           2.571    -8.064    -3.570  H    
     32 H           3.698    -3.421    -5.767  H    
     33 H           4.083    -3.852    -1.560  H    
     34 H           3.347    -6.148    -1.735  H    
     35 H           3.607     0.703    -6.420  H    
     36 H           4.748     1.896    -7.052  H    
     37 H           3.050    -1.922    -8.045  H    
     38 H           3.075    -0.187    -8.324  H    
     39 H           2.711    -1.397   -10.430  H    
     40 H           4.175    -0.404   -10.465  H    
     41 H           4.028    -3.439   -10.054  H    
     42 H           6.480    -3.453    -9.855  H    
     43 H           6.557    -1.699   -10.093  H    
     44 H           6.757    -2.283    -7.708  H    
     45 H           5.246    -3.164    -7.747  H    
     46 H           3.744    -2.742   -12.421  H    
     47 H           5.268    -3.604   -12.185  H    
     48 H           5.269    -1.840   -12.356  H    
     49 H           1.266    -8.392    -6.813  H    
     50 H           1.977    -9.415    -5.551  H    
     51 H           2.964    -8.908    -6.935  H    
@<TRIPOS>BOND
     1    1    2 1
     2    2    6 1
     3    2    3 2
     4    3    4 1
     5    3   27 1
     6    4    5 1
     7    5   10 ar
     8    5    6 ar
     9    6    7 ar
    10    7    8 ar
    11    8    9 ar
    12    8   11 1
    13    9   10 ar
    14   11   15 1
    15   11   12 2
    16   12   13 1
    17   13   14 2
    18   14   15 1
    19   14   16 1
    20   16   17 1
    21   17   18 1
    22   18   19 2
    23   18   20 1
    24   20   25 1
    25   20   21 1
    26   21   22 1
    27   22   23 1
    28   23   24 1
    29   23   26 1
    30   24   25 1
    31    1   28 1
    32    1   29 1
    33    1   30 1
    34    4   31 1
    35    7   32 1
    36    9   33 1
    37   10   34 1
    38   17   35 1
    39   17   36 1
    40   21   37 1
    41   21   38 1
    42   22   39 1
    43   22   40 1
    44   23   41 1
    45   24   42 1
    46   24   43 1
    47   25   44 1
    48   25   45 1
    49   26   46 1
    50   26   47 1
    51   26   48 1
    52   27   49 1
    53   27   50 1
    54   27   51 1
@<TRIPOS>MOLECULE
ZINC01227650
 46 48 0 0 0
SMALL
NO_CHARGES


@<TRIPOS>ATOM
      1 C          -1.814    -6.800    -3.393  C    
      2 C          -1.179    -6.661    -4.641  C    
      3 C           0.208    -6.428    -4.706  C    
      4 C           0.982    -6.322    -3.527  C    
      5 C           0.330    -6.466    -2.279  C    
      6 C          -1.058    -6.702    -2.211  C    
      7 C           2.443    -6.069    -3.578  C    
      8 C           4.276    -4.673    -2.642  C    
      9 C           4.611    -3.350    -1.913  C    
     10 C           2.696    -2.247    -3.023  C    
     11 C           2.357    -3.571    -3.750  C    
     12 C           4.570    -0.868    -2.082  C    
     13 C           4.468     0.289    -3.021  C    
     14 C           5.310     0.296    -4.160  C    
     15 C           5.303     1.352    -5.109  C    
     16 C           4.404     2.421    -4.884  C    
     17 C           3.563     2.439    -3.761  C    
     18 C           3.588     1.386    -2.827  C    
     19 Cl          2.515     1.511    -1.518  Cl   
     20 N           6.140     1.344    -6.184  N    
     21 O           6.177     2.241    -6.991  O    
     22 O           6.990     0.374    -6.406  O    
     23 N           2.816    -4.756    -2.954  N    
     24 N           4.161    -2.167    -2.713  N    
     25 H          -2.821    -6.970    -3.346  H    
     26 H          -1.728    -6.733    -5.501  H    
     27 H           0.646    -6.326    -5.625  H    
     28 H           0.859    -6.401    -1.405  H    
     29 H          -1.518    -6.807    -1.304  H    
     30 H           2.917    -6.897    -3.043  H    
     31 H           2.816    -6.110    -4.608  H    
     32 H           4.876    -4.745    -3.555  H    
     33 H           4.565    -5.496    -1.984  H    
     34 H           4.140    -3.353    -0.923  H    
     35 H           5.694    -3.316    -1.769  H    
     36 H           2.402    -1.424    -3.677  H    
     37 H           2.100    -2.175    -2.107  H    
     38 H           1.274    -3.604    -3.888  H    
     39 H           2.820    -3.566    -4.742  H    
     40 H           5.615    -0.916    -1.768  H    
     41 H           3.991    -0.714    -1.168  H    
     42 H           5.955    -0.484    -4.297  H    
     43 H           4.355     3.207    -5.540  H    
     44 H           2.928     3.232    -3.635  H    
     45 H           2.330    -4.707    -2.056  H    
     46 H           4.649    -2.229    -3.610  H    
@<TRIPOS>BOND
     1    1    6 ar
     2    1    2 ar
     3    2    3 ar
     4    3    4 ar
     5    4    5 ar
     6    4    7 1
     7    5    6 ar
     8    7   23 1
     9    8    9 1
    10    8   23 1
    11    9   24 1
    12   10   11 1
    13   10   24 1
    14   11   23 1
    15   12   13 1
    16   12   24 1
    17   13   18 ar
    18   13   14 ar
    19   14   15 ar
    20   15   16 ar
    21   15   20 1
    22   16   17 ar
    23   17   18 ar
    24   18   19 1
    25   20   21 2
    26   20   22 1
    27    1   25 1
    28    2   26 1
    29    3   27 1
    30    5   28 1
    31    6   29 1
    32    7   30 1
    33    7   31 1
    34    8   32 1
    35    8   33 1
    36    9   34 1
    37    9   35 1
    38   10   36 1
    39   10   37 1
    40   11   38 1
    41   11   39 1
    42   12   40 1
    43   12   41 1
    44   14   42 1
    45   16   43 1
    46   17   44 1
    47   23   45 1
    48   24   46 1
@<TRIPOS>MOLECULE
ZINC01231526
 44 46 0 0 0
SMALL
NO_CHARGES


@<TRIPOS>ATOM
      1 C           4.383    -8.928    -6.046  C    
      2 O           4.061    -8.176    -4.863  O    
      3 C           3.199    -7.141    -5.102  C    
      4 C           3.694    -5.871    -5.467  C    
      5 C           2.814    -4.783    -5.698  C    
      6 C           1.428    -4.998    -5.524  C    
      7 C           0.925    -6.253    -5.125  C    
      8 C           1.816    -7.325    -4.925  C    
      9 O          -0.422    -6.448    -4.996  O    
     10 C          -0.903    -6.215    -3.660  C    
     11 N           3.186    -3.530    -6.079  N    
     12 C           4.407    -3.054    -6.357  C    
     13 C           4.668    -1.779    -6.735  C    
     14 C           3.694    -0.804    -6.844  C    
     15 O           2.664    -0.803    -6.185  O    
     16 N           3.870     0.247    -7.635  N    
     17 C           5.019     0.460    -8.281  C    
     18 S           5.010     1.773    -9.371  S    
     19 N           6.092    -0.340    -8.010  N    
     20 C           5.928    -1.410    -7.197  C    
     21 O           6.912    -2.055    -6.838  O    
     22 C           7.332    -0.036    -8.530  C    
     23 C           7.877    -0.818    -9.574  C    
     24 C           9.147    -0.519   -10.101  C    
     25 C           9.887     0.564    -9.589  C    
     26 C           9.354     1.346    -8.546  C    
     27 C           8.085     1.046    -8.018  C    
     28 F          11.065     0.840   -10.078  F    
     29 H           3.489    -9.383    -6.484  H    
     30 H           5.069    -9.727    -5.765  H    
     31 H           4.877    -8.303    -6.795  H    
     32 H           4.703    -5.759    -5.565  H    
     33 H           0.766    -4.233    -5.686  H    
     34 H           1.455    -8.241    -4.648  H    
     35 H          -0.409    -6.865    -2.934  H    
     36 H          -1.970    -6.437    -3.642  H    
     37 H          -0.767    -5.171    -3.368  H    
     38 H           2.455    -2.906    -6.189  H    
     39 H           5.161    -3.697    -6.331  H    
     40 H           3.154     0.897    -7.719  H    
     41 H           7.348    -1.607    -9.955  H    
     42 H           9.530    -1.092   -10.858  H    
     43 H           9.888     2.133    -8.169  H    
     44 H           7.709     1.618    -7.256  H    
@<TRIPOS>BOND
     1    1    2 1
     2    2    3 1
     3    3    8 ar
     4    3    4 ar
     5    4    5 ar
     6    5    6 ar
     7    5   11 1
     8    6    7 ar
     9    7    8 ar
    10    7    9 1
    11    9   10 1
    12   11   12 1
    13   12   13 2
    14   13   20 1
    15   13   14 1
    16   14   15 2
    17   14   16 1
    18   16   17 1
    19   17   18 2
    20   17   19 1
    21   19   20 1
    22   19   22 1
    23   20   21 2
    24   22   27 ar
    25   22   23 ar
    26   23   24 ar
    27   24   25 ar
    28   25   26 ar
    29   25   28 1
    30   26   27 ar
    31    1   29 1
    32    1   30 1
    33    1   31 1
    34    4   32 1
    35    6   33 1
    36    8   34 1
    37   10   35 1
    38   10   36 1
    39   10   37 1
    40   11   38 1
    41   12   39 1
    42   16   40 1
    43   23   41 1
    44   24   42 1
    45   26   43 1
    46   27   44 1
@<TRIPOS>MOLECULE
ZINC01276875
 35 36 0 0 0
SMALL
NO_CHARGES


@<TRIPOS>ATOM
      1 C          -2.254    -0.599     4.461  C    
      2 C          -0.959    -0.839     3.654  C    
      3 C          -0.407    -2.268     3.884  C    
      4 O          -1.248    -0.605     2.266  O    
      5 C          -0.370    -0.514     1.231  C    
      6 O           0.967    -0.603     1.441  O    
      7 C          -0.913    -0.273    -0.122  C    
      8 N           0.091    -0.306    -1.170  N    
      9 C           0.534     0.757    -1.824  C    
     10 O           0.146     1.895    -1.586  O    
     11 C           1.461     0.483    -2.773  C    
     12 C           2.068     1.402    -3.549  C    
     13 C           3.027     1.119    -4.500  C    
     14 C           2.672     0.567    -5.748  C    
     15 C           3.670     0.292    -6.704  C    
     16 C           5.011     0.579    -6.395  C    
     17 N           5.332     1.122    -5.193  N    
     18 C           4.390     1.406    -4.255  C    
     19 S           1.831    -1.189    -2.838  S    
     20 C           0.685    -1.418    -1.608  C    
     21 S           0.387    -3.012    -1.084  S    
     22 H          -3.029    -1.304     4.155  H    
     23 H          -2.615     0.417     4.286  H    
     24 H          -2.063    -0.719     5.529  H    
     25 H          -0.219    -0.107     3.992  H    
     26 H          -0.186    -2.421     4.940  H    
     27 H           0.514    -2.419     3.320  H    
     28 H          -1.136    -3.013     3.560  H    
     29 H          -1.676    -1.026    -0.338  H    
     30 H          -1.436     0.687    -0.087  H    
     31 H           1.859     2.369    -3.423  H    
     32 H           1.692     0.357    -5.972  H    
     33 H           3.415    -0.111    -7.609  H    
     34 H           5.741     0.385    -7.077  H    
     35 H           4.691     1.800    -3.359  H    
@<TRIPOS>BOND
     1    1    2 1
     2    2    3 1
     3    2    4 1
     4    4    5 1
     5    5    6 2
     6    5    7 1
     7    7    8 1
     8    8   20 1
     9    8    9 1
    10    9   10 2
    11    9   11 1
    12   11   12 2
    13   11   19 1
    14   12   13 1
    15   13   18 ar
    16   13   14 ar
    17   14   15 ar
    18   15   16 ar
    19   16   17 ar
    20   17   18 ar
    21   19   20 1
    22   20   21 2
    23    1   22 1
    24    1   23 1
    25    1   24 1
    26    2   25 1
    27    3   26 1
    28    3   27 1
    29    3   28 1
    30    7   29 1
    31    7   30 1
    32   12   31 1
    33   14   32 1
    34   15   33 1
    35   16   34 1
    36   18   35 1
@<TRIPOS>MOLECULE
ZINC01324401
 45 48 0 0 0
SMALL
NO_CHARGES


@<TRIPOS>ATOM
      1 C           8.880    -9.984    -8.743  C    
      2 C           7.717    -9.581    -9.419  C    
      3 C           6.519    -9.385    -8.707  C    
      4 C           6.446    -9.588    -7.299  C    
      5 C           7.637   -10.010    -6.647  C    
      6 C           8.838   -10.204    -7.356  C    
      7 C           5.244    -9.368    -6.597  C    
      8 O           4.213    -9.155    -7.229  O    
      9 C           5.158    -9.324    -5.136  C    
     10 N           3.883    -8.903    -4.604  N    
     11 C           2.805    -9.707    -4.449  C    
     12 C           2.489   -11.053    -4.726  C    
     13 C           1.179   -11.396    -4.370  C    
     14 S           0.412   -10.001    -3.691  S    
     15 C           1.781    -8.977    -3.872  C    
     16 C           2.236    -7.686    -3.667  C    
     17 C           3.556    -7.662    -4.135  C    
     18 C           4.322    -6.508    -4.209  C    
     19 O           4.703    -6.248    -5.345  O    
     20 N           4.648    -5.709    -3.173  N    
     21 C           4.396    -6.054    -1.777  C    
     22 C           3.549    -4.954    -1.084  C    
     23 C           4.194    -3.552    -1.262  C    
     24 C           4.526    -3.276    -2.752  C    
     25 C           5.348    -4.442    -3.366  C    
     26 H           9.755   -10.119    -9.256  H    
     27 H           7.745    -9.427   -10.428  H    
     28 H           5.699    -9.077    -9.237  H    
     29 H           7.654   -10.189    -5.641  H    
     30 H           9.680   -10.505    -6.860  H    
     31 H           5.390   -10.317    -4.733  H    
     32 H           5.929    -8.645    -4.767  H    
     33 H           3.146   -11.707    -5.155  H    
     34 H           0.743   -12.312    -4.505  H    
     35 H           1.692    -6.907    -3.289  H    
     36 H           3.889    -7.011    -1.637  H    
     37 H           5.356    -6.144    -1.260  H    
     38 H           2.542    -4.946    -1.516  H    
     39 H           3.461    -5.178    -0.016  H    
     40 H           3.508    -2.787    -0.889  H    
     41 H           5.117    -3.501    -0.670  H    
     42 H           3.595    -3.151    -3.315  H    
     43 H           5.101    -2.346    -2.829  H    
     44 H           6.323    -4.494    -2.872  H    
     45 H           5.537    -4.188    -4.413  H    
@<TRIPOS>BOND
     1    1    6 ar
     2    1    2 ar
     3    2    3 ar
     4    3    4 ar
     5    4    5 ar
     6    4    7 1
     7    5    6 ar
     8    7    8 2
     9    7    9 1
    10    9   10 1
    11   10   17 1
    12   10   11 1
    13   11   15 2
    14   11   12 1
    15   12   13 2
    16   13   14 1
    17   14   15 1
    18   15   16 1
    19   16   17 2
    20   17   18 1
    21   18   19 2
    22   18   20 1
    23   20   25 1
    24   20   21 1
    25   21   22 1
    26   22   23 1
    27   23   24 1
    28   24   25 1
    29    1   26 1
    30    2   27 1
    31    3   28 1
    32    5   29 1
    33    6   30 1
    34    9   31 1
    35    9   32 1
    36   12   33 1
    37   13   34 1
    38   16   35 1
    39   21   36 1
    40   21   37 1
    41   22   38 1
    42   22   39 1
    43   23   40 1
    44   23   41 1
    45   24   42 1
    46   24   43 1
    47   25   44 1
    48   25   45 1
@<TRIPOS>MOLECULE
ZINC01325104
 54 58 0 0 0
SMALL
NO_CHARGES


@<TRIPOS>ATOM
      1 C           3.609    -5.900    -3.361  C    
      2 C           3.592    -4.588    -2.851  C    
      3 C           4.780    -3.830    -2.819  C    
      4 C           5.997    -4.377    -3.290  C    
      5 C           5.996    -5.695    -3.808  C    
      6 C           4.809    -6.452    -3.845  C    
      7 C           7.258    -3.582    -3.278  C    
      8 N           7.643    -3.223    -4.577  N    
      9 C           7.086    -2.349    -5.330  C    
     10 C           7.625    -2.512    -6.532  C    
     11 C           7.272    -1.681    -7.555  C    
     12 N           6.400    -0.697    -7.325  N    
     13 C           5.849    -0.514    -6.085  C    
     14 N           6.209    -1.368    -5.081  N    
     15 C           4.906     0.602    -5.825  C    
     16 C           3.502     0.088    -5.382  C    
     17 C           2.551     1.267    -5.042  C    
     18 N           3.174     2.188    -4.127  N    
     19 C           4.467     2.732    -4.459  C    
     20 C           5.474     1.592    -4.766  C    
     21 S           2.513     2.488    -2.594  S    
     22 O           2.726     4.019    -2.219  O    
     23 O           0.928     2.344    -2.635  O    
     24 C           3.173     1.419    -1.390  C    
     25 C           2.871     0.041    -1.439  C    
     26 C           3.437    -0.844    -0.502  C    
     27 C           4.313    -0.354     0.485  C    
     28 C           4.620     1.017     0.541  C    
     29 C           4.054     1.902    -0.397  C    
     30 O           7.752    -1.829    -8.669  O    
     31 N           8.483    -3.449    -6.424  N    
     32 N           8.469    -3.845    -5.262  N    
     33 H           2.746    -6.454    -3.381  H    
     34 H           2.716    -4.184    -2.508  H    
     35 H           4.748    -2.870    -2.462  H    
     36 H           6.862    -6.109    -4.165  H    
     37 H           4.818    -7.398    -4.222  H    
     38 H           7.151    -2.670    -2.679  H    
     39 H           8.040    -4.181    -2.799  H    
     40 H           6.162    -0.097    -8.047  H    
     41 H           4.767     1.163    -6.756  H    
     42 H           3.061    -0.512    -6.185  H    
     43 H           3.603    -0.551    -4.500  H    
     44 H           2.297     1.803    -5.959  H    
     45 H           1.621     0.855    -4.641  H    
     46 H           4.364     3.376    -5.337  H    
     47 H           4.877     3.350    -3.653  H    
     48 H           5.692     1.061    -3.834  H    
     49 H           6.410     2.031    -5.133  H    
     50 H           2.240    -0.323    -2.157  H    
     51 H           3.217    -1.840    -0.542  H    
     52 H           4.732    -0.998     1.161  H    
     53 H           5.258     1.371     1.257  H    
     54 H           4.291     2.897    -0.356  H    
@<TRIPOS>BOND
     1    1    6 ar
     2    1    2 ar
     3    2    3 ar
     4    3    4 ar
     5    4    5 ar
     6    4    7 1
     7    5    6 ar
     8    7    8 1
     9    8   32 1
    10    8    9 1
    11    9   10 2
    12    9   14 1
    13   10   31 1
    14   10   11 1
    15   11   12 1
    16   11   30 2
    17   12   13 1
    18   13   15 1
    19   13   14 2
    20   15   20 1
    21   15   16 1
    22   16   17 1
    23   17   18 1
    24   18   19 1
    25   18   21 1
    26   19   20 1
    27   21   22 2
    28   21   23 2
    29   21   24 1
    30   24   29 ar
    31   24   25 ar
    32   25   26 ar
    33   26   27 ar
    34   27   28 ar
    35   28   29 ar
    36   31   32 2
    37    1   33 1
    38    2   34 1
    39    3   35 1
    40    5   36 1
    41    6   37 1
    42    7   38 1
    43    7   39 1
    44   12   40 1
    45   15   41 1
    46   16   42 1
    47   16   43 1
    48   17   44 1
    49   17   45 1
    50   19   46 1
    51   19   47 1
    52   20   48 1
    53   20   49 1
    54   25   50 1
    55   26   51 1
    56   27   52 1
    57   28   53 1
    58   29   54 1
@<TRIPOS>MOLECULE
ZINC01359249
 53 57 0 0 0
SMALL
NO_CHARGES


@<TRIPOS>ATOM
      1 C           1.194     0.046    -6.528  C    
      2 C           0.822     1.062    -5.627  C    
      3 C           1.558     2.262    -5.572  C    
      4 C           2.676     2.459    -6.422  C    
      5 C           3.039     1.431    -7.326  C    
      6 C           2.299     0.233    -7.379  C    
      7 C           3.485     3.712    -6.352  C    
      8 N           4.761     3.497    -5.801  N    
      9 C           5.034     3.104    -4.612  C    
     10 C           6.359     3.044    -4.536  C    
     11 C           6.952     2.562    -3.404  C    
     12 N           6.185     2.153    -2.390  N    
     13 C           4.817     2.208    -2.459  C    
     14 N           4.258     2.695    -3.602  N    
     15 C           3.977     1.697    -1.344  C    
     16 C           4.203     2.529    -0.043  C    
     17 C           3.286     2.042     1.111  C    
     18 C           1.800     1.951     0.663  C    
     19 N           1.682     1.146    -0.543  N    
     20 C           2.450     1.644    -1.672  C    
     21 C           0.893     0.053    -0.605  C    
     22 O           0.129    -0.224     0.311  O    
     23 C           0.875    -0.855    -1.655  C    
     24 C          -0.293    -1.014    -2.441  C    
     25 C          -0.317    -1.950    -3.491  C    
     26 C           0.819    -2.734    -3.766  C    
     27 C           1.982    -2.589    -2.984  C    
     28 C           2.014    -1.654    -1.933  C    
     29 O           8.166     2.504    -3.305  O    
     30 N           6.802     3.409    -5.673  N    
     31 N           5.840     3.672    -6.393  N    
     32 H           0.659    -0.826    -6.566  H    
     33 H           0.016     0.928    -5.010  H    
     34 H           1.280     2.985    -4.902  H    
     35 H           3.844     1.550    -7.944  H    
     36 H           2.571    -0.505    -8.036  H    
     37 H           3.575     4.123    -7.363  H    
     38 H           2.975     4.473    -5.751  H    
     39 H           6.607     1.807    -1.589  H    
     40 H           4.305     0.668    -1.155  H    
     41 H           5.242     2.452     0.285  H    
     42 H           3.989     3.586    -0.239  H    
     43 H           3.617     1.053     1.437  H    
     44 H           3.369     2.727     1.959  H    
     45 H           1.224     1.553     1.506  H    
     46 H           1.415     2.960     0.466  H    
     47 H           2.098     2.654    -1.917  H    
     48 H           2.310     1.046    -2.576  H    
     49 H          -1.124    -0.447    -2.253  H    
     50 H          -1.164    -2.063    -4.053  H    
     51 H           0.795    -3.425    -4.524  H    
     52 H           2.802    -3.170    -3.175  H    
     53 H           2.862    -1.569    -1.364  H    
@<TRIPOS>BOND
     1    1    6 ar
     2    1    2 ar
     3    2    3 ar
     4    3    4 ar
     5    4    5 ar
     6    4    7 1
     7    5    6 ar
     8    7    8 1
     9    8   31 1
    10    8    9 1
    11    9   10 2
    12    9   14 1
    13   10   30 1
    14   10   11 1
    15   11   12 1
    16   11   29 2
    17   12   13 1
    18   13   15 1
    19   13   14 2
    20   15   20 1
    21   15   16 1
    22   16   17 1
    23   17   18 1
    24   18   19 1
    25   19   20 1
    26   19   21 1
    27   21   22 2
    28   21   23 1
    29   23   28 ar
    30   23   24 ar
    31   24   25 ar
    32   25   26 ar
    33   26   27 ar
    34   27   28 ar
    35   30   31 2
    36    1   32 1
    37    2   33 1
    38    3   34 1
    39    5   35 1
    40    6   36 1
    41    7   37 1
    42    7   38 1
    43   12   39 1
    44   15   40 1
    45   16   41 1
    46   16   42 1
    47   17   43 1
    48   17   44 1
    49   18   45 1
    50   18   46 1
    51   20   47 1
    52   20   48 1
    53   24   49 1
    54   25   50 1
    55   26   51 1
    56   27   52 1
    57   28   53 1
@<TRIPOS>MOLECULE
ZINC01360534
 45 47 0 0 0
SMALL
NO_CHARGES


@<TRIPOS>ATOM
      1 C           5.389    -1.226    -6.406  C    
      2 C           5.645    -2.705    -6.730  C    
      3 O           4.486    -3.484    -6.368  O    
      4 C           4.620    -4.851    -6.304  C    
      5 C           5.303    -5.635    -7.259  C    
      6 C           5.366    -7.035    -7.123  C    
      7 C           4.714    -7.690    -6.054  C    
      8 C           4.013    -6.904    -5.114  C    
      9 C           3.964    -5.503    -5.241  C    
     10 N           4.773    -9.062    -5.924  N    
     11 C           5.871    -9.800    -5.942  C    
     12 O           7.016    -9.383    -6.053  O    
     13 C           5.580   -11.197    -5.762  C    
     14 N           4.174   -11.159    -5.645  N    
     15 C           3.724    -9.898    -5.741  C    
     16 N           2.427    -9.502    -5.721  N    
     17 C           1.284   -10.219    -5.520  C    
     18 C           1.205   -11.470    -4.875  C    
     19 C          -0.039   -12.099    -4.682  C    
     20 C          -1.240   -11.492    -5.118  C    
     21 C          -1.180   -10.219    -5.751  C    
     22 C           0.085    -9.606    -5.941  C    
     23 C          -2.395    -9.509    -6.230  C    
     24 C          -2.499   -12.245    -4.867  C    
     25 H           4.494    -0.883    -6.924  H    
     26 H           6.237    -0.627    -6.735  H    
     27 H           5.253    -1.097    -5.331  H    
     28 H           5.836    -2.799    -7.802  H    
     29 H           6.530    -3.034    -6.178  H    
     30 H           5.760    -5.190    -8.054  H    
     31 H           5.876    -7.574    -7.827  H    
     32 H           3.534    -7.351    -4.327  H    
     33 H           3.447    -4.959    -4.547  H    
     34 H           5.884   -11.786    -6.630  H    
     35 H           6.033   -11.584    -4.848  H    
     36 H           2.290    -8.560    -5.911  H    
     37 H           2.041   -11.924    -4.505  H    
     38 H          -0.058   -13.005    -4.201  H    
     39 H           0.131    -8.687    -6.391  H    
     40 H          -2.898   -10.119    -6.982  H    
     41 H          -2.175    -8.541    -6.681  H    
     42 H          -3.075    -9.336    -5.394  H    
     43 H          -2.454   -13.212    -5.368  H    
     44 H          -3.394   -11.734    -5.222  H    
     45 H          -2.619   -12.412    -3.795  H    
@<TRIPOS>BOND
     1    1    2 1
     2    2    3 1
     3    3    4 1
     4    4    9 ar
     5    4    5 ar
     6    5    6 ar
     7    6    7 ar
     8    7    8 ar
     9    7   10 1
    10    8    9 ar
    11   10   15 1
    12   10   11 1
    13   11   12 2
    14   11   13 1
    15   13   14 1
    16   14   15 2
    17   15   16 1
    18   16   17 1
    19   17   22 ar
    20   17   18 ar
    21   18   19 ar
    22   19   20 ar
    23   20   21 ar
    24   20   24 1
    25   21   22 ar
    26   21   23 1
    27    1   25 1
    28    1   26 1
    29    1   27 1
    30    2   28 1
    31    2   29 1
    32    5   30 1
    33    6   31 1
    34    8   32 1
    35    9   33 1
    36   13   34 1
    37   13   35 1
    38   16   36 1
    39   18   37 1
    40   19   38 1
    41   22   39 1
    42   23   40 1
    43   23   41 1
    44   23   42 1
    45   24   43 1
    46   24   44 1
    47   24   45 1
@<TRIPOS>MOLECULE
ZINC01367422
 58 62 0 0 0
SMALL
NO_CHARGES


@<TRIPOS>ATOM
      1 C           8.346    -4.578    -2.838  C    
      2 C           7.169    -3.819    -3.344  C    
      3 C           6.541    -2.875    -2.496  C    
      4 C           5.422    -2.135    -2.927  C    
      5 C           4.778    -1.203    -2.093  C    
      6 C           3.720    -0.466    -2.509  C    
      7 C           3.251    -0.698    -3.807  C    
      8 N           2.256    -0.166    -4.519  N    
      9 N           2.283    -0.741    -5.645  N    
     10 N           3.190    -1.567    -5.710  N    
     11 N           3.827    -1.591    -4.623  N    
     12 C           4.919    -2.334    -4.242  C    
     13 C           5.537    -3.271    -5.092  C    
     14 C           6.657    -4.021    -4.660  C    
     15 C           7.270    -5.003    -5.598  C    
     16 C           3.079     0.539    -1.643  C    
     17 N           2.903     1.875    -2.208  N    
     18 C           1.636     2.586    -1.993  C    
     19 C           1.263     2.820    -0.511  C    
     20 C          -0.239     3.141    -0.545  C    
     21 C          -0.804     2.228    -1.650  C    
     22 C           0.362     1.962    -2.630  C    
     23 C           3.852     2.429    -2.993  C    
     24 O           3.450     3.029    -3.992  O    
     25 N           5.182     2.285    -2.846  N    
     26 C           5.787     2.202    -1.529  C    
     27 C           7.025     3.138    -1.433  C    
     28 O           7.897     3.139    -2.588  O    
     29 C           7.566     2.221    -3.644  C    
     30 C           6.063     2.329    -4.001  C    
     31 H           8.136    -5.647    -2.842  H    
     32 H           8.612    -4.298    -1.819  H    
     33 H           9.214    -4.388    -3.469  H    
     34 H           6.901    -2.724    -1.551  H    
     35 H           5.118    -1.085    -1.167  H    
     36 H           5.161    -3.411    -6.032  H    
     37 H           8.309    -4.730    -5.790  H    
     38 H           6.756    -5.045    -6.559  H    
     39 H           7.240    -6.003    -5.164  H    
     40 H           2.110     0.107    -1.370  H    
     41 H           3.616     0.643    -0.698  H    
     42 H           1.710     3.601    -2.412  H    
     43 H           1.429     1.926     0.099  H    
     44 H           1.838     3.645    -0.079  H    
     45 H          -0.717     2.952     0.419  H    
     46 H          -0.388     4.193    -0.818  H    
     47 H          -1.145     1.286    -1.211  H    
     48 H          -1.646     2.704    -2.160  H    
     49 H           0.165     2.424    -3.601  H    
     50 H           0.463     0.887    -2.788  H    
     51 H           5.097     2.475    -0.725  H    
     52 H           6.126     1.179    -1.360  H    
     53 H           6.680     4.166    -1.296  H    
     54 H           7.613     2.871    -0.554  H    
     55 H           8.175     2.448    -4.518  H    
     56 H           7.801     1.203    -3.326  H    
     57 H           5.804     1.507    -4.676  H    
     58 H           5.922     3.273    -4.535  H    
@<TRIPOS>BOND
     1    1    2 1
     2    2   14 ar
     3    2    3 ar
     4    3    4 ar
     5    4   12 ar
     6    4    5 1
     7    5    6 2
     8    6    7 1
     9    6   16 1
    10    7   11 1
    11    7    8 2
    12    8    9 1
    13    9   10 2
    14   10   11 1
    15   11   12 1
    16   12   13 ar
    17   13   14 ar
    18   14   15 1
    19   16   17 1
    20   17   18 1
    21   17   23 1
    22   18   22 1
    23   18   19 1
    24   19   20 1
    25   20   21 1
    26   21   22 1
    27   23   24 2
    28   23   25 1
    29   25   30 1
    30   25   26 1
    31   26   27 1
    32   27   28 1
    33   28   29 1
    34   29   30 1
    35    1   31 1
    36    1   32 1
    37    1   33 1
    38    3   34 1
    39    5   35 1
    40   13   36 1
    41   15   37 1
    42   15   38 1
    43   15   39 1
    44   16   40 1
    45   16   41 1
    46   18   42 1
    47   19   43 1
    48   19   44 1
    49   20   45 1
    50   20   46 1
    51   21   47 1
    52   21   48 1
    53   22   49 1
    54   22   50 1
    55   26   51 1
    56   26   52 1
    57   27   53 1
    58   27   54 1
    59   29   55 1
    60   29   56 1
    61   30   57 1
    62   30   58 1
@<TRIPOS>MOLECULE
ZINC01377406
 53 56 0 0 0
SMALL
NO_CHARGES


@<TRIPOS>ATOM
      1 C           0.241     0.149    -5.263  C    
      2 C           1.641    -0.290    -5.484  C    
      3 C           1.977    -1.260    -6.456  C    
      4 S           3.679    -1.495    -6.421  S    
      5 C           3.983    -0.363    -5.172  C    
      6 C           2.765     0.214    -4.764  C    
      7 C           2.873     1.180    -3.726  C    
      8 N           4.104     1.485    -3.230  N    
      9 C           5.249     0.890    -3.653  C    
     10 N           5.186    -0.041    -4.639  N    
     11 C           6.541     1.271    -3.060  C    
     12 C           7.456     0.170    -2.496  C    
     13 C           6.689     1.085    -1.538  C    
     14 S           1.537     2.064    -3.039  S    
     15 C           1.825     1.704    -1.279  C    
     16 C           0.785     2.115    -0.330  C    
     17 O          -0.165     2.693    -0.844  O    
     18 N           0.823     1.912     1.014  N    
     19 C           2.008     1.324     1.673  C    
     20 C           2.613     2.337     2.691  C    
     21 C           1.562     2.900     3.676  C    
     22 C           0.307     3.407     2.922  C    
     23 C          -0.254     2.324     1.946  C    
     24 C          -1.653     2.785     1.432  C    
     25 C           1.743    -0.083     2.286  C    
     26 C           1.093    -1.990    -7.385  C    
     27 H          -0.053    -0.062    -4.234  H    
     28 H          -0.470    -0.354    -5.917  H    
     29 H           0.160     1.220    -5.455  H    
     30 H           7.046     2.161    -3.446  H    
     31 H           7.091    -0.858    -2.550  H    
     32 H           8.529     0.360    -2.562  H    
     33 H           7.306     1.819    -1.016  H    
     34 H           5.867     0.603    -1.001  H    
     35 H           1.964     0.625    -1.183  H    
     36 H           2.752     2.215    -1.013  H    
     37 H           2.826     1.138     0.977  H    
     38 H           3.426     1.870     3.256  H    
     39 H           3.041     3.176     2.132  H    
     40 H           1.271     2.122     4.390  H    
     41 H           2.002     3.726     4.244  H    
     42 H          -0.447     3.684     3.664  H    
     43 H           0.565     4.307     2.353  H    
     44 H          -0.507     1.446     2.548  H    
     45 H          -1.592     3.749     0.920  H    
     46 H          -2.351     2.895     2.266  H    
     47 H          -2.069     2.036     0.752  H    
     48 H           1.124    -0.032     3.182  H    
     49 H           2.688    -0.560     2.563  H    
     50 H           1.243    -0.718     1.551  H    
     51 H           0.372    -2.582    -6.819  H    
     52 H           1.667    -2.663    -8.025  H    
     53 H           0.559    -1.281    -8.020  H    
@<TRIPOS>BOND
     1    1    2 1
     2    2    6 1
     3    2    3 2
     4    3    4 1
     5    3   26 1
     6    4    5 1
     7    5   10 ar
     8    5    6 ar
     9    6    7 ar
    10    7    8 ar
    11    7   14 1
    12    8    9 ar
    13    9   10 ar
    14    9   11 1
    15   11   13 1
    16   11   12 1
    17   12   13 1
    18   14   15 1
    19   15   16 1
    20   16   17 2
    21   16   18 1
    22   18   23 1
    23   18   19 1
    24   19   20 1
    25   19   25 1
    26   20   21 1
    27   21   22 1
    28   22   23 1
    29   23   24 1
    30    1   27 1
    31    1   28 1
    32    1   29 1
    33   11   30 1
    34   12   31 1
    35   12   32 1
    36   13   33 1
    37   13   34 1
    38   15   35 1
    39   15   36 1
    40   19   37 1
    41   20   38 1
    42   20   39 1
    43   21   40 1
    44   21   41 1
    45   22   42 1
    46   22   43 1
    47   23   44 1
    48   24   45 1
    49   24   46 1
    50   24   47 1
    51   25   48 1
    52   25   49 1
    53   25   50 1
    54   26   51 1
    55   26   52 1
    56   26   53 1
@<TRIPOS>MOLECULE
ZINC01380552
 52 55 0 0 0
SMALL
NO_CHARGES


@<TRIPOS>ATOM
      1 C          11.135     4.831    -5.890  C    
      2 O           9.715     4.623    -5.773  O    
      3 C           9.335     3.328    -5.999  C    
      4 C           9.232     2.434    -4.917  C    
      5 C           8.828     1.104    -5.128  C    
      6 C           8.493     0.651    -6.428  C    
      7 C           8.598     1.553    -7.513  C    
      8 C           8.989     2.892    -7.298  C    
      9 O           9.076     3.743    -8.368  O    
     10 C           7.907     4.570    -8.524  C    
     11 C           8.121    -0.673    -6.639  C    
     12 O           8.952    -1.490    -6.257  O    
     13 N           6.960    -1.085    -7.185  N    
     14 C           5.828    -0.202    -7.441  C    
     15 C           4.588    -0.640    -6.616  C    
     16 C           4.259    -2.151    -6.810  C    
     17 C           5.535    -3.027    -6.634  C    
     18 C           6.710    -2.487    -7.490  C    
     19 N           3.168    -2.586    -5.974  N    
     20 C           3.078    -2.630    -4.628  C    
     21 C           3.943    -2.317    -3.564  C    
     22 C           3.487    -2.491    -2.242  C    
     23 C           2.178    -2.974    -1.970  C    
     24 C           1.324    -3.285    -3.060  C    
     25 C           1.801    -3.105    -4.369  C    
     26 N           1.225    -3.314    -5.556  N    
     27 N           2.058    -2.996    -6.451  N    
     28 C           1.749    -3.137    -0.552  C    
     29 F           2.584    -4.019     0.089  F    
     30 F           1.807    -1.929     0.096  F    
     31 F           0.472    -3.614    -0.394  F    
     32 H          11.682     4.221    -5.170  H    
     33 H          11.346     5.879    -5.675  H    
     34 H          11.490     4.609    -6.898  H    
     35 H           9.458     2.749    -3.971  H    
     36 H           8.760     0.477    -4.324  H    
     37 H           8.383     1.243    -8.468  H    
     38 H           7.009     3.962    -8.680  H    
     39 H           8.055     5.205    -9.401  H    
     40 H           7.753     5.220    -7.657  H    
     41 H           6.019     0.843    -7.190  H    
     42 H           5.582    -0.230    -8.507  H    
     43 H           4.794    -0.434    -5.565  H    
     44 H           3.721    -0.040    -6.915  H    
     45 H           3.949    -2.266    -7.857  H    
     46 H           5.852    -3.038    -5.591  H    
     47 H           5.313    -4.055    -6.930  H    
     48 H           6.454    -2.580    -8.549  H    
     49 H           7.572    -3.140    -7.329  H    
     50 H           4.883    -1.965    -3.731  H    
     51 H           4.117    -2.257    -1.474  H    
     52 H           0.374    -3.633    -2.916  H    
@<TRIPOS>BOND
     1    1    2 1
     2    2    3 1
     3    3    8 ar
     4    3    4 ar
     5    4    5 ar
     6    5    6 ar
     7    6    7 ar
     8    6   11 1
     9    7    8 ar
    10    8    9 1
    11    9   10 1
    12   11   12 2
    13   11   13 1
    14   13   18 1
    15   13   14 1
    16   14   15 1
    17   15   16 1
    18   16   17 1
    19   16   19 1
    20   17   18 1
    21   19   27 1
    22   19   20 1
    23   20   25 ar
    24   20   21 ar
    25   21   22 ar
    26   22   23 ar
    27   23   24 ar
    28   23   28 1
    29   24   25 ar
    30   25   26 1
    31   26   27 2
    32   28   29 1
    33   28   30 1
    34   28   31 1
    35    1   32 1
    36    1   33 1
    37    1   34 1
    38    4   35 1
    39    5   36 1
    40    7   37 1
    41   10   38 1
    42   10   39 1
    43   10   40 1
    44   14   41 1
    45   14   42 1
    46   15   43 1
    47   15   44 1
    48   16   45 1
    49   17   46 1
    50   17   47 1
    51   18   48 1
    52   18   49 1
    53   21   50 1
    54   22   51 1
    55   24   52 1
@<TRIPOS>MOLECULE
ZINC00070835
 44 45 0 0 0
SMALL
NO_CHARGES


@<TRIPOS>ATOM
      1 C           8.828    -7.959    -3.005  C    
      2 O           8.857    -8.283    -1.603  O    
      3 C           7.817    -7.911    -0.785  C    
      4 C           7.929    -8.264     0.577  C    
      5 C           6.911    -7.939     1.503  C    
      6 C           5.739    -7.276     1.078  C    
      7 C           5.642    -6.884    -0.275  C    
      8 C           6.661    -7.204    -1.191  C    
      9 N           4.768    -7.035     1.992  N    
     10 N           3.685    -6.407     1.740  N    
     11 C           2.885    -5.868     2.562  C    
     12 C           1.790    -5.427     2.114  C    
     13 N           0.829    -4.963     1.683  N    
     14 C           2.913    -6.243     3.913  C    
     15 N           3.517    -5.411     4.838  N    
     16 C           4.046    -4.105     4.460  C    
     17 C           5.585    -4.142     4.275  C    
     18 C           6.365    -3.956     5.598  C    
     19 C           6.077    -5.049     6.658  C    
     20 C           4.608    -5.061     7.164  C    
     21 C           3.644    -5.844     6.223  C    
     22 N           2.404    -7.458     4.250  N    
     23 H           7.969    -8.428    -3.489  H    
     24 H           9.734    -8.335    -3.481  H    
     25 H           8.794    -6.876    -3.146  H    
     26 H           8.747    -8.766     0.907  H    
     27 H           7.030    -8.200     2.479  H    
     28 H           4.834    -6.376    -0.610  H    
     29 H           6.534    -6.919    -2.152  H    
     30 H           4.944    -7.294     2.904  H    
     31 H           3.616    -3.711     3.538  H    
     32 H           3.755    -3.347     5.185  H    
     33 H           5.884    -5.082     3.804  H    
     34 H           5.876    -3.338     3.596  H    
     35 H           7.433    -3.968     5.370  H    
     36 H           6.138    -2.971     6.016  H    
     37 H           6.341    -6.030     6.251  H    
     38 H           6.737    -4.868     7.510  H    
     39 H           4.582    -5.530     8.149  H    
     40 H           4.251    -4.040     7.314  H    
     41 H           2.648    -5.820     6.669  H    
     42 H           3.988    -6.883     6.249  H    
     43 H           2.428    -7.755     5.175  H    
     44 H           2.014    -8.035     3.570  H    
@<TRIPOS>BOND
     1    1    2 1
     2    2    3 1
     3    3    8 ar
     4    3    4 ar
     5    4    5 ar
     6    5    6 ar
     7    6    7 ar
     8    6    9 1
     9    7    8 ar
    10    9   10 1
    11   10   11 2
    12   11   12 1
    13   11   14 1
    14   12   13 3
    15   14   15 1
    16   14   22 2
    17   15   21 1
    18   15   16 1
    19   16   17 1
    20   17   18 1
    21   18   19 1
    22   19   20 1
    23   20   21 1
    24    1   23 1
    25    1   24 1
    26    1   25 1
    27    4   26 1
    28    5   27 1
    29    7   28 1
    30    8   29 1
    31    9   30 1
    32   16   31 1
    33   16   32 1
    34   17   33 1
    35   17   34 1
    36   18   35 1
    37   18   36 1
    38   19   37 1
    39   19   38 1
    40   20   39 1
    41   20   40 1
    42   21   41 1
    43   21   42 1
    44   22   43 1
    45   22   44 1
@<TRIPOS>MOLECULE
ZINC00030793
 39 40 0 0 0
SMALL
NO_CHARGES


@<TRIPOS>ATOM
      1 C           6.451    -7.111    -1.783  C    
      2 C           5.954    -5.743    -1.256  C    
      3 C           6.104    -5.549     0.291  C    
      4 C           5.334    -6.581     1.061  C    
      5 C           3.917    -6.622     1.016  C    
      6 C           3.198    -7.583     1.750  C    
      7 C           3.882    -8.528     2.533  C    
      8 C           5.285    -8.507     2.586  C    
      9 C           6.005    -7.541     1.860  C    
     10 C           5.766    -4.204     0.772  C    
     11 O           5.245    -3.391     0.017  O    
     12 N           6.087    -3.889     2.024  N    
     13 C           5.916    -2.733     2.739  C    
     14 C           5.039    -1.672     2.405  C    
     15 C           4.959    -0.526     3.212  C    
     16 C           5.746    -0.423     4.373  C    
     17 C           6.609    -1.479     4.753  C    
     18 C           6.673    -2.621     3.927  C    
     19 O           7.438    -1.498     5.855  O    
     20 C           7.287    -0.535     6.907  C    
     21 H           7.495    -7.271    -1.497  H    
     22 H           6.382    -7.132    -2.872  H    
     23 H           5.841    -7.924    -1.382  H    
     24 H           6.535    -4.968    -1.767  H    
     25 H           4.910    -5.614    -1.554  H    
     26 H           7.175    -5.669     0.492  H    
     27 H           3.399    -5.942     0.455  H    
     28 H           2.176    -7.593     1.712  H    
     29 H           3.359    -9.226     3.066  H    
     30 H           5.784    -9.193     3.157  H    
     31 H           7.025    -7.548     1.918  H    
     32 H           6.564    -4.586     2.502  H    
     33 H           4.436    -1.720     1.585  H    
     34 H           4.325     0.237     2.959  H    
     35 H           5.675     0.426     4.934  H    
     36 H           7.305    -3.381     4.193  H    
     37 H           7.533     0.469     6.549  H    
     38 H           7.982    -0.791     7.707  H    
     39 H           6.272    -0.549     7.313  H    
@<TRIPOS>BOND
     1    1    2 1
     2    2    3 1
     3    3    4 1
     4    3   10 1
     5    4    9 ar
     6    4    5 ar
     7    5    6 ar
     8    6    7 ar
     9    7    8 ar
    10    8    9 ar
    11   10   11 2
    12   10   12 1
    13   12   13 1
    14   13   18 ar
    15   13   14 ar
    16   14   15 ar
    17   15   16 ar
    18   16   17 ar
    19   17   18 ar
    20   17   19 1
    21   19   20 1
    22    1   21 1
    23    1   22 1
    24    1   23 1
    25    2   24 1
    26    2   25 1
    27    3   26 1
    28    5   27 1
    29    6   28 1
    30    7   29 1
    31    8   30 1
    32    9   31 1
    33   12   32 1
    34   14   33 1
    35   15   34 1
    36   16   35 1
    37   18   36 1
    38   20   37 1
    39   20   38 1
    40   20   39 1
@<TRIPOS>MOLECULE
ZINC00031473
 33 34 0 0 0
SMALL
NO_CHARGES


@<TRIPOS>ATOM
      1 C           4.501   -11.333    -1.004  C    
      2 C           4.413    -9.990    -0.385  C    
      3 C           4.969    -9.722     0.885  C    
      4 C           4.871    -8.437     1.452  C    
      5 C           4.224    -7.384     0.758  C    
      6 C           3.647    -7.666    -0.500  C    
      7 C           3.748    -8.950    -1.071  C    
      8 N           4.064    -6.112     1.241  N    
      9 C           4.791    -5.440     2.125  C    
     10 O           5.824    -5.875     2.614  O    
     11 C           4.394    -4.203     2.471  C    
     12 S           3.059    -4.097     3.531  S    
     13 N           5.178    -3.194     2.198  N    
     14 C           4.894    -1.829     2.281  C    
     15 C           5.775    -1.214     3.288  C    
     16 C           5.391    -0.719     4.533  C    
     17 C           6.538    -0.241     5.151  C    
     18 C           7.589    -0.453     4.268  C    
     19 O           7.115    -1.046     3.146  O    
     20 H           3.496   -11.722    -1.184  H    
     21 H           5.034   -12.043    -0.367  H    
     22 H           5.029   -11.266    -1.958  H    
     23 H           5.443   -10.465     1.410  H    
     24 H           5.255    -8.290     2.388  H    
     25 H           3.156    -6.932    -1.018  H    
     26 H           3.332    -9.121    -1.992  H    
     27 H           3.325    -5.614     0.851  H    
     28 H           6.027    -3.413     1.867  H    
     29 H           5.110    -1.373     1.310  H    
     30 H           3.847    -1.624     2.515  H    
     31 H           4.444    -0.719     4.924  H    
     32 H           6.594     0.182     6.079  H    
     33 H           8.565    -0.203     4.436  H    
@<TRIPOS>BOND
     1    1    2 1
     2    2    7 ar
     3    2    3 ar
     4    3    4 ar
     5    4    5 ar
     6    5    6 ar
     7    5    8 1
     8    6    7 ar
     9    8    9 1
    10    9   10 2
    11    9   11 1
    12   11   12 2
    13   11   13 1
    14   13   14 1
    15   14   15 1
    16   15   19 1
    17   15   16 2
    18   16   17 1
    19   17   18 2
    20   18   19 1
    21    1   20 1
    22    1   21 1
    23    1   22 1
    24    3   23 1
    25    4   24 1
    26    6   25 1
    27    7   26 1
    28    8   27 1
    29   13   28 1
    30   14   29 1
    31   14   30 1
    32   16   31 1
    33   17   32 1
    34   18   33 1
@<TRIPOS>MOLECULE
ZINC00034642
 42 44 0 0 0
SMALL
NO_CHARGES


@<TRIPOS>ATOM
      1 C          -3.451     3.993     6.684  C    
      2 O          -3.446     4.829     5.511  O    
      3 C          -3.129     4.293     4.284  C    
      4 C          -2.282     3.179     4.064  C    
      5 C          -1.990     2.742     2.760  C    
      6 C          -2.523     3.408     1.634  C    
      7 C          -3.364     4.525     1.856  C    
      8 C          -3.662     4.956     3.161  C    
      9 C          -2.157     2.972     0.254  C    
     10 N          -1.538     4.003    -0.526  N    
     11 C          -2.206     4.344    -1.617  C    
     12 O          -1.838     5.213    -2.394  O    
     13 C          -3.431     3.649    -1.884  C    
     14 S          -3.625     2.391    -0.620  S    
     15 C          -0.258     4.572    -0.149  C    
     16 C           0.951     3.767    -0.707  C    
     17 C           2.252     4.253    -0.165  C    
     18 C           3.024     3.443     0.704  C    
     19 C           4.243     3.909     1.228  C    
     20 C           4.712     5.188     0.890  C    
     21 C           3.961     6.004     0.027  C    
     22 C           2.741     5.540    -0.497  C    
     23 O           0.981     3.826    -2.132  O    
     24 H          -4.028     3.078     6.523  H    
     25 H          -3.915     4.550     7.499  H    
     26 H          -2.431     3.740     6.984  H    
     27 H          -1.864     2.673     4.844  H    
     28 H          -1.376     1.933     2.640  H    
     29 H          -3.756     5.041     1.065  H    
     30 H          -4.280     5.761     3.293  H    
     31 H          -1.477     2.117     0.283  H    
     32 H          -4.274     4.336    -1.841  H    
     33 H          -3.403     3.170    -2.865  H    
     34 H          -0.191     5.610    -0.483  H    
     35 H          -0.179     4.604     0.941  H    
     36 H           0.811     2.715    -0.444  H    
     37 H           2.699     2.511     0.970  H    
     38 H           4.787     3.315     1.858  H    
     39 H           5.597     5.528     1.273  H    
     40 H           4.298     6.936    -0.218  H    
     41 H           2.209     6.150    -1.124  H    
     42 H           0.130     3.432    -2.418  H    
@<TRIPOS>BOND
     1    1    2 1
     2    2    3 1
     3    3    8 ar
     4    3    4 ar
     5    4    5 ar
     6    5    6 ar
     7    6    7 ar
     8    6    9 1
     9    7    8 ar
    10    9   14 1
    11    9   10 1
    12   10   11 1
    13   10   15 1
    14   11   12 2
    15   11   13 1
    16   13   14 1
    17   15   16 1
    18   16   17 1
    19   16   23 1
    20   17   22 ar
    21   17   18 ar
    22   18   19 ar
    23   19   20 ar
    24   20   21 ar
    25   21   22 ar
    26    1   24 1
    27    1   25 1
    28    1   26 1
    29    4   27 1
    30    5   28 1
    31    7   29 1
    32    8   30 1
    33    9   31 1
    34   13   32 1
    35   13   33 1
    36   15   34 1
    37   15   35 1
    38   16   36 1
    39   18   37 1
    40   19   38 1
    41   20   39 1
    42   21   40 1
    43   22   41 1
    44   23   42 1
@<TRIPOS>MOLECULE
ZINC00048008
 39 40 0 0 0
SMALL
NO_CHARGES


@<TRIPOS>ATOM
      1 C           6.158   -13.818    -0.917  C    
      2 O           4.899   -13.257    -0.493  O    
      3 C           4.841   -11.966    -0.019  C    
      4 C           5.923   -11.171     0.447  C    
      5 C           5.708    -9.873     0.973  C    
      6 C           4.390    -9.346     1.052  C    
      7 C           3.320   -10.142     0.611  C    
      8 C           3.544   -11.427     0.083  C    
      9 N           4.033    -8.134     1.587  N    
     10 C           4.721    -7.004     1.739  C    
     11 O           5.904    -6.926     1.389  O    
     12 C           4.137    -5.846     2.162  C    
     13 C           4.568    -5.297     3.344  C    
     14 C           4.161    -4.056     3.856  C    
     15 C           4.138    -2.926     2.991  C    
     16 C           3.797    -1.646     3.482  C    
     17 C           3.464    -1.479     4.844  C    
     18 C           3.536    -2.585     5.723  C    
     19 C           3.877    -3.882     5.237  C    
     20 O           3.969    -4.971     6.081  O    
     21 C           2.847    -5.246     6.943  C    
     22 C           2.939    -5.597     1.765  C    
     23 N           1.868    -5.347     1.390  N    
     24 H           6.644   -13.182    -1.670  H    
     25 H           5.952   -14.794    -1.365  H    
     26 H           6.824   -13.967    -0.056  H    
     27 H           6.879   -11.525     0.400  H    
     28 H           6.516    -9.337     1.306  H    
     29 H           2.360    -9.781     0.654  H    
     30 H           2.746   -11.964    -0.244  H    
     31 H           3.090    -8.060     1.810  H    
     32 H           5.264    -5.794     3.875  H    
     33 H           4.372    -3.026     1.995  H    
     34 H           3.763    -0.859     2.835  H    
     35 H           3.221    -0.549     5.190  H    
     36 H           3.325    -2.438     6.707  H    
     37 H           2.961    -4.710     7.889  H    
     38 H           2.851    -6.312     7.153  H    
     39 H           1.880    -4.992     6.492  H    
@<TRIPOS>BOND
     1    1    2 1
     2    2    3 1
     3    3    8 ar
     4    3    4 ar
     5    4    5 ar
     6    5    6 ar
     7    6    7 ar
     8    6    9 1
     9    7    8 ar
    10    9   10 1
    11   10   11 2
    12   10   12 1
    13   12   13 2
    14   12   22 1
    15   13   14 1
    16   14   19 ar
    17   14   15 ar
    18   15   16 ar
    19   16   17 ar
    20   17   18 ar
    21   18   19 ar
    22   19   20 1
    23   20   21 1
    24   22   23 3
    25    1   24 1
    26    1   25 1
    27    1   26 1
    28    4   27 1
    29    5   28 1
    30    7   29 1
    31    8   30 1
    32    9   31 1
    33   13   32 1
    34   15   33 1
    35   16   34 1
    36   17   35 1
    37   18   36 1
    38   21   37 1
    39   21   38 1
    40   21   39 1
@<TRIPOS>MOLECULE
ZINC00056609
 29 29 0 0 0
SMALL
NO_CHARGES


@<TRIPOS>ATOM
      1 C           3.278    -5.497     2.031  C    
      2 C           3.674    -4.848     0.863  C    
      3 C           3.421    -5.737    -0.193  C    
      4 C           2.889    -6.902     0.385  C    
      5 N           2.815    -6.712     1.715  N    
      6 C           2.437    -8.143    -0.277  C    
      7 C           3.701    -5.510    -1.635  C    
      8 C           2.484    -5.564    -2.464  C    
      9 O           1.496    -4.654    -2.298  O    
     10 C           4.256    -3.485     0.815  C    
     11 C           3.237    -2.427     0.319  C    
     12 C           3.769    -1.052     0.221  C    
     13 O           5.054    -0.745     0.510  O    
     14 N           3.540    -8.822    -0.963  N    
     15 O           2.355    -6.495    -3.437  O    
     16 O           2.945    -0.053    -0.170  O    
     17 H           3.328    -5.117     2.979  H    
     18 H           2.476    -7.361     2.354  H    
     19 H           2.023    -8.834     0.460  H    
     20 H           1.653    -7.910    -0.997  H    
     21 H           4.163    -4.538    -1.797  H    
     22 H           4.418    -6.260    -1.969  H    
     23 H           4.592    -3.199     1.815  H    
     24 H           5.136    -3.501     0.168  H    
     25 H           2.864    -2.709    -0.667  H    
     26 H           2.388    -2.411     1.007  H    
     27 H           3.894    -8.231    -1.717  H    
     28 H           3.204    -9.703    -1.359  H    
     29 H           4.295    -9.013    -0.302  H    
@<TRIPOS>BOND
     1    1    5 1
     2    1    2 2
     3    2    3 1
     4    2   10 1
     5    3    4 2
     6    3    7 1
     7    4    5 1
     8    4    6 1
     9    6   14 1
    10    7    8 1
    11    8    9 2
    12    8   15 1
    13   10   11 1
    14   11   12 1
    15   12   13 2
    16   12   16 1
    17    1   17 1
    18    5   18 1
    19    6   19 1
    20    6   20 1
    21    7   21 1
    22    7   22 1
    23   10   23 1
    24   10   24 1
    25   11   25 1
    26   11   26 1
    27   14   27 1
    28   14   28 1
    29   14   29 1
@<TRIPOS>MOLECULE
ZINC00056872
 28 28 0 0 0
SMALL
NO_CHARGES


@<TRIPOS>ATOM
      1 C           5.460    -8.631     0.640  C    
      2 C           3.968    -8.924     0.390  C    
      3 O           3.328    -7.894    -0.373  O    
      4 C           3.021    -6.624     0.009  C    
      5 O           3.346    -6.211     1.255  O    
      6 C           2.427    -5.743    -0.917  C    
      7 C           2.473    -5.949    -2.297  C    
      8 N           1.888    -4.920    -2.919  N    
      9 C           1.449    -4.050    -2.003  C    
     10 C           1.751    -4.527    -0.727  C    
     11 C           1.355    -3.865     0.452  C    
     12 O           1.338    -4.501     1.649  O    
     13 O           0.893    -2.587     0.377  O    
     14 C           0.399    -1.789     1.462  C    
     15 C           0.007    -0.395     0.940  C    
     16 H           5.968    -8.425    -0.307  H    
     17 H           5.935    -9.499     1.112  H    
     18 H           5.577    -7.767     1.299  H    
     19 H           3.896    -9.854    -0.178  H    
     20 H           3.446    -9.067     1.340  H    
     21 H           2.910    -6.743    -2.776  H    
     22 H           1.797    -4.825    -3.878  H    
     23 H           0.949    -3.190    -2.228  H    
     24 H          -0.480    -2.269     1.906  H    
     25 H           1.171    -1.685     2.230  H    
     26 H           0.878     0.094     0.489  H    
     27 H          -0.357     0.221     1.764  H    
     28 H          -0.780    -0.484     0.186  H    
@<TRIPOS>BOND
     1    1    2 1
     2    2    3 1
     3    3    4 1
     4    4    5 2
     5    4    6 1
     6    6   10 1
     7    6    7 2
     8    7    8 1
     9    8    9 1
    10    9   10 2
    11   10   11 1
    12   11   12 2
    13   11   13 1
    14   13   14 1
    15   14   15 1
    16    1   16 1
    17    1   17 1
    18    1   18 1
    19    2   19 1
    20    2   20 1
    21    7   21 1
    22    8   22 1
    23    9   23 1
    24   14   24 1
    25   14   25 1
    26   15   26 1
    27   15   27 1
    28   15   28 1
@<TRIPOS>MOLECULE
ZINC00057245
 33 34 0 0 0
SMALL
NO_CHARGES


@<TRIPOS>ATOM
      1 C           7.058    -9.252     0.150  C    
      2 C           7.169    -7.893    -0.203  C    
      3 C           6.051    -7.044    -0.094  C    
      4 C           4.810    -7.538     0.378  C    
      5 C           4.712    -8.907     0.722  C    
      6 C           5.827    -9.759     0.609  C    
      7 C           3.646    -6.632     0.495  C    
      8 O           3.939    -5.598     1.440  O    
      9 C           3.121    -4.578     1.822  C    
     10 O           1.874    -4.496     1.295  O    
     11 N           3.561    -3.643     2.712  N    
     12 C           2.722    -2.590     3.192  C    
     13 C           3.458    -2.023     4.417  C    
     14 C           4.932    -2.334     4.133  C    
     15 C           4.873    -3.642     3.305  C    
     16 C           5.989    -3.710     2.334  C    
     17 O           6.058    -2.842     1.298  O    
     18 O           3.210    -0.634     4.616  O    
     19 O           6.908    -4.703     2.407  O    
     20 H           7.871    -9.870     0.073  H    
     21 H           8.062    -7.527    -0.541  H    
     22 H           6.147    -6.059    -0.360  H    
     23 H           3.827    -9.294     1.062  H    
     24 H           5.746   -10.747     0.862  H    
     25 H           3.429    -6.190    -0.480  H    
     26 H           2.755    -7.166     0.827  H    
     27 H           2.602    -1.831     2.413  H    
     28 H           1.735    -2.956     3.494  H    
     29 H           3.137    -2.562     5.316  H    
     30 H           5.376    -1.510     3.564  H    
     31 H           5.495    -2.466     5.058  H    
     32 H           4.938    -4.496     3.988  H    
     33 H           3.459    -0.206     3.772  H    
@<TRIPOS>BOND
     1    1    6 ar
     2    1    2 ar
     3    2    3 ar
     4    3    4 ar
     5    4    5 ar
     6    4    7 1
     7    5    6 ar
     8    7    8 1
     9    8    9 1
    10    9   10 2
    11    9   11 1
    12   11   15 1
    13   11   12 1
    14   12   13 1
    15   13   14 1
    16   13   18 1
    17   14   15 1
    18   15   16 1
    19   16   17 2
    20   16   19 1
    21    1   20 1
    22    2   21 1
    23    3   22 1
    24    5   23 1
    25    6   24 1
    26    7   25 1
    27    7   26 1
    28   12   27 1
    29   12   28 1
    30   13   29 1
    31   14   30 1
    32   14   31 1
    33   15   32 1
    34   18   33 1
@<TRIPOS>MOLECULE
ZINC00069834
 36 36 0 0 0
SMALL
NO_CHARGES


@<TRIPOS>ATOM
      1 C           5.831    -8.993    -2.659  C    
      2 C           5.805    -9.052    -1.110  C    
      3 N           4.917    -8.037    -0.547  N    
      4 C           3.577    -8.468    -0.182  C    
      5 C           3.409    -8.684     1.337  C    
      6 C           5.350    -6.763    -0.397  C    
      7 O           6.511    -6.483    -0.685  O    
      8 C           4.610    -5.615     0.122  C    
      9 S           4.477    -4.307    -1.136  S    
     10 C           3.676    -3.126    -0.149  C    
     11 N           2.437    -3.360     0.351  N    
     12 C           1.784    -2.444     1.115  C    
     13 C           2.409    -1.209     1.390  C    
     14 C           3.696    -0.977     0.856  C    
     15 N           4.287    -1.943     0.103  N    
     16 C           4.401     0.293     1.095  C    
     17 C           0.445    -2.788     1.630  C    
     18 H           4.828    -9.172    -3.056  H    
     19 H           6.507    -9.757    -3.048  H    
     20 H           6.181    -8.019    -3.003  H    
     21 H           5.498   -10.063    -0.812  H    
     22 H           6.828    -8.936    -0.729  H    
     23 H           2.826    -7.766    -0.549  H    
     24 H           3.323    -9.414    -0.670  H    
     25 H           4.119    -9.429     1.693  H    
     26 H           2.402    -9.036     1.549  H    
     27 H           3.574    -7.762     1.889  H    
     28 H           3.598    -5.863     0.435  H    
     29 H           5.139    -5.227     0.997  H    
     30 H           1.946    -0.500     1.966  H    
     31 H           3.806     1.124     0.711  H    
     32 H           5.375     0.304     0.599  H    
     33 H           4.557     0.429     2.167  H    
     34 H          -0.227    -2.982     0.795  H    
     35 H           0.021    -1.986     2.238  H    
     36 H           0.513    -3.684     2.247  H    
@<TRIPOS>BOND
     1    1    2 1
     2    2    3 1
     3    3    4 1
     4    3    6 1
     5    4    5 1
     6    6    7 2
     7    6    8 1
     8    8    9 1
     9    9   10 1
    10   10   15 ar
    11   10   11 ar
    12   11   12 ar
    13   12   13 ar
    14   12   17 1
    15   13   14 ar
    16   14   15 ar
    17   14   16 1
    18    1   18 1
    19    1   19 1
    20    1   20 1
    21    2   21 1
    22    2   22 1
    23    4   23 1
    24    4   24 1
    25    5   25 1
    26    5   26 1
    27    5   27 1
    28    8   28 1
    29    8   29 1
    30   13   30 1
    31   16   31 1
    32   16   32 1
    33   16   33 1
    34   17   34 1
    35   17   35 1
    36   17   36 1
@<TRIPOS>MOLECULE
ZINC00081349
 47 49 0 0 0
SMALL
NO_CHARGES


@<TRIPOS>ATOM
      1 C           9.452   -10.523     1.450  C    
      2 C           8.130   -10.998     0.821  C    
      3 O           7.227    -9.893     0.716  O    
      4 C           5.973    -9.917     0.191  C    
      5 O           5.462   -11.074    -0.302  O    
      6 C           5.200    -8.651     0.162  C    
      7 C           3.932    -8.708    -0.744  C    
      8 C           3.145    -7.375    -0.687  C    
      9 C           2.838    -6.989     0.783  C    
     10 N           4.052    -6.954     1.583  N    
     11 C           4.810    -8.199     1.604  C    
     12 C           4.453    -5.828     2.211  C    
     13 O           3.908    -4.754     1.982  O    
     14 C           5.451    -5.753     3.174  C    
     15 C           6.568    -4.917     3.134  C    
     16 O           7.340    -5.200     4.208  O    
     17 N           6.765    -6.134     4.911  N    
     18 C           5.604    -6.511     4.343  C    
     19 C           4.755    -7.502     4.905  C    
     20 C           5.314    -8.603     5.597  C    
     21 C           4.492    -9.594     6.164  C    
     22 C           3.095    -9.492     6.057  C    
     23 C           2.520    -8.403     5.384  C    
     24 C           3.343    -7.416     4.811  C    
     25 C           6.942    -3.942     2.098  C    
     26 H           9.906    -9.750     0.828  H    
     27 H          10.149   -11.361     1.531  H    
     28 H           9.272   -10.116     2.447  H    
     29 H           8.329   -11.402    -0.176  H    
     30 H           7.689   -11.784     1.443  H    
     31 H           5.862    -7.885    -0.260  H    
     32 H           4.229    -8.907    -1.779  H    
     33 H           3.272    -9.518    -0.417  H    
     34 H           3.741    -6.581    -1.148  H    
     35 H           2.212    -7.474    -1.251  H    
     36 H           2.290    -6.043     0.774  H    
     37 H           2.157    -7.733     1.213  H    
     38 H           4.203    -8.973     2.088  H    
     39 H           5.733    -8.121     2.184  H    
     40 H           6.329    -8.699     5.684  H    
     41 H           4.914   -10.386     6.651  H    
     42 H           2.498   -10.213     6.473  H    
     43 H           1.503    -8.328     5.313  H    
     44 H           2.899    -6.625     4.344  H    
     45 H           7.013    -4.439     1.130  H    
     46 H           7.908    -3.491     2.336  H    
     47 H           6.190    -3.153     2.046  H    
@<TRIPOS>BOND
     1    1    2 1
     2    2    3 1
     3    3    4 1
     4    4    5 2
     5    4    6 1
     6    6   11 1
     7    6    7 1
     8    7    8 1
     9    8    9 1
    10    9   10 1
    11   10   11 1
    12   10   12 1
    13   12   13 2
    14   12   14 1
    15   14   18 1
    16   14   15 2
    17   15   16 1
    18   15   25 1
    19   16   17 1
    20   17   18 2
    21   18   19 1
    22   19   24 ar
    23   19   20 ar
    24   20   21 ar
    25   21   22 ar
    26   22   23 ar
    27   23   24 ar
    28    1   26 1
    29    1   27 1
    30    1   28 1
    31    2   29 1
    32    2   30 1
    33    6   31 1
    34    7   32 1
    35    7   33 1
    36    8   34 1
    37    8   35 1
    38    9   36 1
    39    9   37 1
    40   11   38 1
    41   11   39 1
    42   20   40 1
    43   21   41 1
    44   22   42 1
    45   23   43 1
    46   24   44 1
    47   25   45 1
    48   25   46 1
    49   25   47 1
@<TRIPOS>MOLECULE
ZINC00088121
 48 50 0 0 0
SMALL
NO_CHARGES


@<TRIPOS>ATOM
      1 C           5.483   -12.803    -2.817  C    
      2 C           6.484   -12.128    -2.095  C    
      3 C           6.384   -10.738    -1.882  C    
      4 C           5.286   -10.005    -2.394  C    
      5 C           4.285   -10.699    -3.116  C    
      6 C           4.383   -12.089    -3.328  C    
      7 C           5.188    -8.535    -2.175  C    
      8 C           4.483    -8.184    -0.835  C    
      9 C           4.385    -6.653    -0.591  C    
     10 C           3.123    -4.826     0.540  C    
     11 C           2.199    -4.450     1.726  C    
     12 N           2.833    -4.820     2.981  N    
     13 C           3.188    -6.227     3.083  C    
     14 C           4.123    -6.625     1.912  C    
     15 C           3.076    -3.915     3.951  C    
     16 O           2.751    -2.742     3.834  O    
     17 C           3.703    -4.204     5.151  C    
     18 C           5.115    -4.151     5.245  C    
     19 C           5.755    -4.452     6.461  C    
     20 C           4.996    -4.808     7.590  C    
     21 C           3.588    -4.864     7.505  C    
     22 C           2.946    -4.561     6.288  C    
     23 F           2.885    -5.199     8.553  F    
     24 N           3.526    -6.271     0.582  N    
     25 H           5.556   -13.814    -2.973  H    
     26 H           7.284   -12.647    -1.727  H    
     27 H           7.123   -10.265    -1.355  H    
     28 H           3.476   -10.199    -3.495  H    
     29 H           3.658   -12.581    -3.854  H    
     30 H           6.190    -8.097    -2.182  H    
     31 H           4.639    -8.076    -3.004  H    
     32 H           3.472    -8.602    -0.842  H    
     33 H           5.039    -8.650    -0.019  H    
     34 H           5.392    -6.240    -0.471  H    
     35 H           3.963    -6.214    -1.499  H    
     36 H           2.577    -4.616    -0.386  H    
     37 H           4.011    -4.185     0.565  H    
     38 H           1.963    -3.385     1.638  H    
     39 H           1.253    -4.991     1.631  H    
     40 H           3.690    -6.503     4.015  H    
     41 H           2.276    -6.828     3.030  H    
     42 H           5.086    -6.120     2.043  H    
     43 H           4.293    -7.701     1.984  H    
     44 H           5.685    -3.896     4.429  H    
     45 H           6.774    -4.414     6.524  H    
     46 H           5.468    -5.028     8.472  H    
     47 H           1.923    -4.609     6.236  H    
     48 H           2.659    -6.807     0.497  H    
@<TRIPOS>BOND
     1    1    6 ar
     2    1    2 ar
     3    2    3 ar
     4    3    4 ar
     5    4    5 ar
     6    4    7 1
     7    5    6 ar
     8    7    8 1
     9    8    9 1
    10    9   24 1
    11   10   11 1
    12   10   24 1
    13   11   12 1
    14   12   13 1
    15   12   15 1
    16   13   14 1
    17   14   24 1
    18   15   16 2
    19   15   17 1
    20   17   22 ar
    21   17   18 ar
    22   18   19 ar
    23   19   20 ar
    24   20   21 ar
    25   21   22 ar
    26   21   23 1
    27    1   25 1
    28    2   26 1
    29    3   27 1
    30    5   28 1
    31    6   29 1
    32    7   30 1
    33    7   31 1
    34    8   32 1
    35    8   33 1
    36    9   34 1
    37    9   35 1
    38   10   36 1
    39   10   37 1
    40   11   38 1
    41   11   39 1
    42   13   40 1
    43   13   41 1
    44   14   42 1
    45   14   43 1
    46   18   44 1
    47   19   45 1
    48   20   46 1
    49   22   47 1
    50   24   48 1
@<TRIPOS>MOLECULE
ZINC00093742
 46 48 0 0 0
SMALL
NO_CHARGES


@<TRIPOS>ATOM
      1 C          11.291   -11.965     1.744  C    
      2 C           9.790   -11.875     1.395  C    
      3 C           9.195   -10.484     1.738  C    
      4 N           7.785   -10.468     1.537  N    
      5 C           6.990    -9.406     1.800  C    
      6 N           7.417    -8.222     2.279  N    
      7 C           6.344    -7.434     2.416  C    
      8 C           5.222    -8.148     2.002  C    
      9 N           5.645    -9.378     1.629  N    
     10 C           4.887   -10.499     1.150  C    
     11 C           3.997    -7.486     2.061  C    
     12 O           3.018    -8.094     1.648  O    
     13 N           3.912    -6.219     2.534  N    
     14 C           5.040    -5.571     2.933  C    
     15 O           4.959    -4.427     3.373  O    
     16 N           6.263    -6.141     2.873  N    
     17 C           7.495    -5.495     3.261  C    
     18 C           2.604    -5.557     2.604  C    
     19 C           1.861    -5.913     3.846  C    
     20 C           1.994    -5.134     5.019  C    
     21 C           1.292    -5.472     6.193  C    
     22 C           0.456    -6.605     6.209  C    
     23 C           0.313    -7.390     5.051  C    
     24 C           1.004    -7.041     3.876  C    
     25 O           9.608   -12.158     0.009  O    
     26 H          11.860   -11.218     1.187  H    
     27 H          11.673   -12.957     1.491  H    
     28 H          11.443   -11.799     2.814  H    
     29 H           9.255   -12.641     1.967  H    
     30 H           9.407   -10.249     2.785  H    
     31 H           9.657    -9.720     1.107  H    
     32 H           7.363   -11.278     1.197  H    
     33 H           5.234   -10.773     0.152  H    
     34 H           3.819   -10.298     1.095  H    
     35 H           5.035   -11.347     1.822  H    
     36 H           7.964    -6.055     4.070  H    
     37 H           7.361    -4.469     3.605  H    
     38 H           8.178    -5.466     2.411  H    
     39 H           2.699    -4.469     2.550  H    
     40 H           2.000    -5.807     1.726  H    
     41 H           2.599    -4.307     5.028  H    
     42 H           1.390    -4.898     7.034  H    
     43 H          -0.049    -6.857     7.063  H    
     44 H          -0.293    -8.214     5.063  H    
     45 H           0.871    -7.615     3.040  H    
     46 H          10.125   -11.476    -0.464  H    
@<TRIPOS>BOND
     1    1    2 1
     2    2    3 1
     3    2   25 1
     4    3    4 1
     5    4    5 1
     6    5    9 1
     7    5    6 2
     8    6    7 1
     9    7   16 1
    10    7    8 2
    11    8    9 1
    12    8   11 1
    13    9   10 1
    14   11   12 2
    15   11   13 1
    16   13   14 1
    17   13   18 1
    18   14   15 2
    19   14   16 1
    20   16   17 1
    21   18   19 1
    22   19   24 ar
    23   19   20 ar
    24   20   21 ar
    25   21   22 ar
    26   22   23 ar
    27   23   24 ar
    28    1   26 1
    29    1   27 1
    30    1   28 1
    31    2   29 1
    32    3   30 1
    33    3   31 1
    34    4   32 1
    35   10   33 1
    36   10   34 1
    37   10   35 1
    38   17   36 1
    39   17   37 1
    40   17   38 1
    41   18   39 1
    42   18   40 1
    43   20   41 1
    44   21   42 1
    45   22   43 1
    46   23   44 1
    47   24   45 1
    48   25   46 1
@<TRIPOS>MOLECULE
ZINC00095700
 45 47 0 0 0
SMALL
NO_CHARGES


@<TRIPOS>ATOM
      1 C           6.117    -3.629    -3.686  C    
      2 N           5.965    -2.828    -2.512  N    
      3 C           4.894    -2.114    -2.126  C    
      4 C           5.208    -1.457    -0.936  C    
      5 C           4.227    -0.657    -0.294  C    
      6 C           2.990    -0.483    -0.964  C    
      7 C           2.727    -1.170    -2.167  C    
      8 N           3.680    -1.973    -2.712  N    
      9 O           1.510    -0.995    -2.763  O    
     10 C           0.808    -1.824    -3.589  C    
     11 O           1.269    -3.084    -3.795  O    
     12 N          -0.364    -1.406    -4.154  N    
     13 C          -1.199    -2.347    -4.856  C    
     14 C          -0.739    -0.020    -4.045  C    
     15 C           4.406    -0.058     1.050  C    
     16 O           4.786     1.320     0.899  O    
     17 C           5.001     2.001     2.147  C    
     18 C           6.526    -1.825    -0.678  C    
     19 N           6.925    -2.659    -1.656  N    
     20 C           7.397    -1.400     0.339  C    
     21 C           7.738    -0.033     0.472  C    
     22 C           8.640     0.378     1.471  C    
     23 C           9.206    -0.574     2.340  C    
     24 C           8.875    -1.936     2.210  C    
     25 C           7.979    -2.348     1.207  C    
     26 H           6.936    -3.236    -4.292  H    
     27 H           5.212    -3.635    -4.292  H    
     28 H           6.352    -4.656    -3.400  H    
     29 H           2.259     0.111    -0.553  H    
     30 H          -0.641    -2.811    -5.673  H    
     31 H          -2.089    -1.886    -5.285  H    
     32 H          -1.531    -3.128    -4.167  H    
     33 H          -0.860     0.256    -2.993  H    
     34 H          -1.673     0.212    -4.559  H    
     35 H           0.044     0.604    -4.487  H    
     36 H           3.466    -0.129     1.606  H    
     37 H           5.154    -0.608     1.620  H    
     38 H           4.091     2.007     2.754  H    
     39 H           5.280     3.033     1.934  H    
     40 H           5.811     1.534     2.713  H    
     41 H           7.342     0.666    -0.161  H    
     42 H           8.886     1.369     1.564  H    
     43 H           9.866    -0.275     3.065  H    
     44 H           9.287    -2.627     2.844  H    
     45 H           7.744    -3.341     1.124  H    
@<TRIPOS>BOND
     1    1    2 1
     2    2   19 1
     3    2    3 1
     4    3    8 ar
     5    3    4 ar
     6    4    5 ar
     7    4   18 1
     8    5    6 ar
     9    5   15 1
    10    6    7 ar
    11    7    8 ar
    12    7    9 1
    13    9   10 1
    14   10   11 2
    15   10   12 1
    16   12   13 1
    17   12   14 1
    18   15   16 1
    19   16   17 1
    20   18   19 2
    21   18   20 1
    22   20   25 ar
    23   20   21 ar
    24   21   22 ar
    25   22   23 ar
    26   23   24 ar
    27   24   25 ar
    28    1   26 1
    29    1   27 1
    30    1   28 1
    31    6   29 1
    32   13   30 1
    33   13   31 1
    34   13   32 1
    35   14   33 1
    36   14   34 1
    37   14   35 1
    38   15   36 1
    39   15   37 1
    40   17   38 1
    41   17   39 1
    42   17   40 1
    43   21   41 1
    44   22   42 1
    45   23   43 1
    46   24   44 1
    47   25   45 1
@<TRIPOS>MOLECULE
ZINC00103427
 38 39 0 0 0
SMALL
NO_CHARGES


@<TRIPOS>ATOM
      1 C           4.432    -6.917    -0.915  C    
      2 C           5.429    -7.275     0.216  C    
      3 C           5.582    -8.752     0.390  C    
      4 C           4.491    -9.560     0.803  C    
      5 C           4.643   -10.949     0.975  C    
      6 C           5.889   -11.555     0.733  C    
      7 C           6.982   -10.770     0.320  C    
      8 C           6.830    -9.381     0.151  C    
      9 N           4.975    -6.695     1.450  N    
     10 C           5.628    -5.859     2.255  C    
     11 O           6.769    -5.525     1.960  O    
     12 C           5.046    -5.374     3.439  C    
     13 C           3.654    -5.477     3.682  C    
     14 C           3.086    -4.997     4.871  C    
     15 C           3.890    -4.405     5.864  C    
     16 C           5.287    -4.242     5.655  C    
     17 C           5.832    -4.743     4.441  C    
     18 N           6.096    -3.623     6.571  N    
     19 O           7.281    -3.486     6.409  O    
     20 O           5.656    -3.107     7.684  O    
     21 O           3.259    -3.948     6.992  O    
     22 C           3.064    -4.963     7.993  C    
     23 H           4.748    -7.371    -1.857  H    
     24 H           4.397    -5.834    -1.053  H    
     25 H           3.423    -7.264    -0.681  H    
     26 H           6.388    -6.840    -0.082  H    
     27 H           3.577    -9.140     0.990  H    
     28 H           3.848   -11.518     1.277  H    
     29 H           6.001   -12.563     0.858  H    
     30 H           7.889   -11.210     0.144  H    
     31 H           7.642    -8.833    -0.148  H    
     32 H           4.089    -6.969     1.738  H    
     33 H           3.025    -5.893     2.991  H    
     34 H           2.076    -5.082     5.014  H    
     35 H           6.839    -4.651     4.286  H    
     36 H           2.415    -5.761     7.627  H    
     37 H           2.581    -4.500     8.855  H    
     38 H           4.016    -5.390     8.321  H    
@<TRIPOS>BOND
     1    1    2 1
     2    2    3 1
     3    2    9 1
     4    3    8 ar
     5    3    4 ar
     6    4    5 ar
     7    5    6 ar
     8    6    7 ar
     9    7    8 ar
    10    9   10 1
    11   10   11 2
    12   10   12 1
    13   12   17 ar
    14   12   13 ar
    15   13   14 ar
    16   14   15 ar
    17   15   16 ar
    18   15   21 1
    19   16   17 ar
    20   16   18 1
    21   18   19 2
    22   18   20 1
    23   21   22 1
    24    1   23 1
    25    1   24 1
    26    1   25 1
    27    2   26 1
    28    4   27 1
    29    5   28 1
    30    6   29 1
    31    7   30 1
    32    8   31 1
    33    9   32 1
    34   13   33 1
    35   14   34 1
    36   17   35 1
    37   22   36 1
    38   22   37 1
    39   22   38 1
@<TRIPOS>MOLECULE
ZINC00109902
 33 34 0 0 0
SMALL
NO_CHARGES


@<TRIPOS>ATOM
      1 C           6.366   -11.636     0.141  C    
      2 O           5.728   -10.371     0.310  O    
      3 C           6.128    -9.372     1.140  C    
      4 O           7.237    -9.515     1.906  O    
      5 C           5.369    -8.111     1.124  C    
      6 N           5.781    -7.200     2.150  N    
      7 C           5.378    -5.943     2.282  C    
      8 O           4.596    -5.446     1.481  O    
      9 C           5.864    -5.168     3.413  C    
     10 N           5.565    -3.744     3.345  N    
     11 C           4.461    -3.266     4.011  C    
     12 N           4.134    -1.953     3.977  N    
     13 C           4.890    -1.060     3.284  C    
     14 C           4.530     0.301     3.278  C    
     15 C           5.305     1.232     2.565  C    
     16 C           6.440     0.803     1.859  C    
     17 C           6.803    -0.558     1.863  C    
     18 C           6.033    -1.509     2.574  C    
     19 C           6.324    -2.884     2.630  C    
     20 O           7.289    -3.299     2.000  O    
     21 H           7.359   -11.501    -0.290  H    
     22 H           5.766   -12.243    -0.537  H    
     23 H           6.451   -12.152     1.101  H    
     24 H           5.504    -7.656     0.140  H    
     25 H           4.308    -8.337     1.257  H    
     26 H           6.412    -7.535     2.808  H    
     27 H           5.448    -5.614     4.318  H    
     28 H           6.946    -5.306     3.498  H    
     29 H           3.853    -3.895     4.539  H    
     30 H           3.706     0.620     3.790  H    
     31 H           5.043     2.219     2.560  H    
     32 H           7.005     1.481     1.341  H    
     33 H           7.635    -0.843     1.342  H    
@<TRIPOS>BOND
     1    1    2 1
     2    2    3 1
     3    3    4 2
     4    3    5 1
     5    5    6 1
     6    6    7 1
     7    7    8 2
     8    7    9 1
     9    9   10 1
    10   10   19 1
    11   10   11 1
    12   11   12 2
    13   12   13 1
    14   13   18 ar
    15   13   14 ar
    16   14   15 ar
    17   15   16 ar
    18   16   17 ar
    19   17   18 ar
    20   18   19 1
    21   19   20 2
    22    1   21 1
    23    1   22 1
    24    1   23 1
    25    5   24 1
    26    5   25 1
    27    6   26 1
    28    9   27 1
    29    9   28 1
    30   11   29 1
    31   14   30 1
    32   15   31 1
    33   16   32 1
    34   17   33 1
@<TRIPOS>MOLECULE
ZINC00116635
 36 38 0 0 0
SMALL
NO_CHARGES


@<TRIPOS>ATOM
      1 C           2.196   -10.977    -2.010  C    
      2 C           2.064    -9.577    -2.024  C    
      3 C           2.760    -8.792    -1.087  C    
      4 C           3.607    -9.389    -0.116  C    
      5 C           3.724   -10.802    -0.119  C    
      6 C           3.026   -11.590    -1.054  C    
      7 C           4.315    -8.590     0.836  C    
      8 C           4.973    -7.399     0.440  C    
      9 C           5.655    -6.603     1.377  C    
     10 C           5.688    -6.972     2.733  C    
     11 C           5.064    -8.167     3.139  C    
     12 C           4.376    -8.959     2.201  C    
     13 O           6.368    -6.185     3.625  O    
     14 C           5.513    -5.347     4.431  C    
     15 C           6.338    -4.427     5.187  C    
     16 O           7.023    -3.634     4.553  O    
     17 N           6.316    -4.454     6.511  N    
     18 C           6.988    -3.664     7.377  C    
     19 N           6.856    -3.790     8.718  N    
     20 C           7.581    -2.921     9.469  C    
     21 C           8.359    -2.017     8.743  C    
     22 S           8.089    -2.371     7.085  S    
     23 H           1.693   -11.550    -2.694  H    
     24 H           1.458    -9.130    -2.716  H    
     25 H           2.630    -7.776    -1.106  H    
     26 H           4.334   -11.274     0.553  H    
     27 H           3.129   -12.607    -1.042  H    
     28 H           4.976    -7.110    -0.540  H    
     29 H           6.128    -5.751     1.068  H    
     30 H           5.101    -8.458     4.117  H    
     31 H           3.906    -9.803     2.533  H    
     32 H           4.823    -4.762     3.811  H    
     33 H           4.917    -5.974     5.103  H    
     34 H           5.732    -5.116     6.913  H    
     35 H           7.558    -2.936    10.491  H    
     36 H           8.970    -1.291     9.118  H    
@<TRIPOS>BOND
     1    1    6 ar
     2    1    2 ar
     3    2    3 ar
     4    3    4 ar
     5    4    5 ar
     6    4    7 1
     7    5    6 ar
     8    7   12 ar
     9    7    8 ar
    10    8    9 ar
    11    9   10 ar
    12   10   11 ar
    13   10   13 1
    14   11   12 ar
    15   13   14 1
    16   14   15 1
    17   15   16 2
    18   15   17 1
    19   17   18 1
    20   18   22 1
    21   18   19 2
    22   19   20 1
    23   20   21 2
    24   21   22 1
    25    1   23 1
    26    2   24 1
    27    3   25 1
    28    5   26 1
    29    6   27 1
    30    8   28 1
    31    9   29 1
    32   11   30 1
    33   12   31 1
    34   14   32 1
    35   14   33 1
    36   17   34 1
    37   20   35 1
    38   21   36 1
@<TRIPOS>MOLECULE
ZINC00172274
 32 33 0 0 0
SMALL
NO_CHARGES


@<TRIPOS>ATOM
      1 C           2.201     2.667    -1.300  C    
      2 N           1.397     3.483    -0.455  N    
      3 C           1.885     4.329     0.477  C    
      4 O           3.220     4.471     0.682  O    
      5 O           0.988     5.029     1.218  O    
      6 N           1.311     5.897     2.144  N    
      7 C           0.385     6.492     2.925  C    
      8 C           0.805     7.454     3.965  C    
      9 C           0.563     6.921     5.327  C    
     10 C          -0.478     7.403     6.138  C    
     11 S          -0.466     6.553     7.631  S    
     12 C           0.881     5.562     7.243  C    
     13 C           1.319     5.893     5.945  C    
     14 C           2.432     5.199     5.413  C    
     15 C           3.080     4.203     6.178  C    
     16 C           2.614     3.893     7.476  C    
     17 C           1.505     4.573     8.018  C    
     18 Cl          4.422     3.390     5.538  Cl   
     19 N          -0.925     6.226     2.767  N    
     20 H           2.873     3.285    -1.901  H    
     21 H           1.547     2.103    -1.965  H    
     22 H           2.784     1.964    -0.705  H    
     23 H           0.431     3.433    -0.557  H    
     24 H           2.251     6.094     2.294  H    
     25 H           1.866     7.700     3.869  H    
     26 H           0.260     8.389     3.811  H    
     27 H          -1.148     8.137     5.896  H    
     28 H           2.784     5.421     4.481  H    
     29 H           3.075     3.170     8.033  H    
     30 H           1.161     4.355     8.956  H    
     31 H          -1.578     6.666     3.333  H    
     32 H          -1.222     5.594     2.094  H    
@<TRIPOS>BOND
     1    1    2 1
     2    2    3 1
     3    3    4 2
     4    3    5 1
     5    5    6 1
     6    6    7 1
     7    7    8 1
     8    7   19 2
     9    8    9 1
    10    9   13 1
    11    9   10 2
    12   10   11 1
    13   11   12 1
    14   12   17 ar
    15   12   13 ar
    16   13   14 ar
    17   14   15 ar
    18   15   16 ar
    19   15   18 1
    20   16   17 ar
    21    1   20 1
    22    1   21 1
    23    1   22 1
    24    2   23 1
    25    6   24 1
    26    8   25 1
    27    8   26 1
    28   10   27 1
    29   14   28 1
    30   16   29 1
    31   17   30 1
    32   19   31 1
    33   19   32 1
@<TRIPOS>MOLECULE
ZINC00148412
 35 36 0 0 0
SMALL
NO_CHARGES


@<TRIPOS>ATOM
      1 C           0.328    -8.698    -4.919  C    
      2 C           1.270    -7.472    -4.888  C    
      3 C           1.626    -7.054    -6.261  C    
      4 O           0.686    -6.557    -7.095  O    
      5 O           0.602    -6.411    -4.177  O    
      6 C           1.248    -5.257    -3.786  C    
      7 C           2.647    -5.055    -3.770  C    
      8 C           3.196    -3.862    -3.264  C    
      9 C           2.371    -2.824    -2.759  C    
     10 C           0.967    -3.025    -2.818  C    
     11 C           0.419    -4.221    -3.317  C    
     12 C           2.914    -1.655    -2.204  C    
     13 O           2.215    -0.651    -2.160  O    
     14 N           4.140    -1.657    -1.683  N    
     15 C           4.882    -0.693    -1.044  C    
     16 C           4.490     0.643    -0.768  C    
     17 C           5.352     1.526    -0.090  C    
     18 C           6.621     1.093     0.330  C    
     19 C           7.027    -0.227     0.065  C    
     20 C           6.166    -1.106    -0.615  C    
     21 F           7.421     1.909     0.958  F    
     22 O           2.915    -7.071    -6.675  O    
     23 H          -0.606    -8.454    -5.431  H    
     24 H           0.091    -9.017    -3.901  H    
     25 H           0.803    -9.539    -5.433  H    
     26 H           2.170    -7.774    -4.343  H    
     27 H           3.277    -5.779    -4.116  H    
     28 H           4.214    -3.765    -3.277  H    
     29 H           0.323    -2.313    -2.458  H    
     30 H          -0.597    -4.343    -3.316  H    
     31 H           4.588    -2.515    -1.742  H    
     32 H           3.578     0.998    -1.054  H    
     33 H           5.050     2.485     0.098  H    
     34 H           7.949    -0.550     0.367  H    
     35 H           6.489    -2.061    -0.797  H    
@<TRIPOS>BOND
     1    1    2 1
     2    2    3 1
     3    2    5 1
     4    3    4 2
     5    3   22 1
     6    5    6 1
     7    6   11 ar
     8    6    7 ar
     9    7    8 ar
    10    8    9 ar
    11    9   10 ar
    12    9   12 1
    13   10   11 ar
    14   12   13 2
    15   12   14 1
    16   14   15 1
    17   15   20 ar
    18   15   16 ar
    19   16   17 ar
    20   17   18 ar
    21   18   19 ar
    22   18   21 1
    23   19   20 ar
    24    1   23 1
    25    1   24 1
    26    1   25 1
    27    2   26 1
    28    7   27 1
    29    8   28 1
    30   10   29 1
    31   11   30 1
    32   14   31 1
    33   16   32 1
    34   17   33 1
    35   19   34 1
    36   20   35 1
@<TRIPOS>MOLECULE
ZINC00148837
 38 39 0 0 0
SMALL
NO_CHARGES


@<TRIPOS>ATOM
      1 C           0.825     1.956     4.653  C    
      2 C           0.184     1.638     6.020  C    
      3 C          -0.246     2.856     6.738  C    
      4 C           0.473     3.561     7.713  C    
      5 C          -0.176     4.707     8.218  C    
      6 C          -1.435     4.933     7.650  C    
      7 S          -1.735     3.692     6.501  S    
      8 N          -2.204     5.987     8.019  N    
      9 C          -1.740     6.844     8.967  C    
     10 N          -0.507     6.663     9.556  N    
     11 C           0.268     5.618     9.184  C    
     12 O           1.384     5.452     9.652  O    
     13 C          -0.081     7.637    10.550  C    
     14 C           0.418     8.902     9.963  C    
     15 O           0.570     9.015     8.624  O    
     16 O           0.698    10.017    10.690  O    
     17 C           0.637    10.257    12.106  C    
     18 C          -0.682    11.006    12.411  C    
     19 C           1.918    11.000    12.575  C    
     20 C           2.191    12.358    11.889  C    
     21 H           0.118     2.488     4.014  H    
     22 H           1.114     1.028     4.154  H    
     23 H           1.719     2.570     4.785  H    
     24 H          -0.680     0.985     5.871  H    
     25 H           0.911     1.096     6.629  H    
     26 H           1.401     3.271     8.024  H    
     27 H          -2.331     7.636     9.225  H    
     28 H          -0.919     7.869    11.211  H    
     29 H           0.712     7.239    11.189  H    
     30 H           0.603     9.307    12.646  H    
     31 H          -0.754    11.928    11.828  H    
     32 H          -0.746    11.251    13.474  H    
     33 H          -1.535    10.371    12.153  H    
     34 H           1.860    11.163    13.655  H    
     35 H           2.776    10.349    12.388  H    
     36 H           2.227    12.241    10.805  H    
     37 H           3.152    12.754    12.225  H    
     38 H           1.414    13.080    12.141  H    
@<TRIPOS>BOND
     1    1    2 1
     2    2    3 1
     3    3    7 1
     4    3    4 2
     5    4    5 1
     6    5   11 1
     7    5    6 2
     8    6    7 1
     9    6    8 1
    10    8    9 2
    11    9   10 1
    12   10   11 1
    13   10   13 1
    14   11   12 2
    15   13   14 1
    16   14   15 2
    17   14   16 1
    18   16   17 1
    19   17   18 1
    20   17   19 1
    21   19   20 1
    22    1   21 1
    23    1   22 1
    24    1   23 1
    25    2   24 1
    26    2   25 1
    27    4   26 1
    28    9   27 1
    29   13   28 1
    30   13   29 1
    31   17   30 1
    32   18   31 1
    33   18   32 1
    34   18   33 1
    35   19   34 1
    36   19   35 1
    37   20   36 1
    38   20   37 1
    39   20   38 1
@<TRIPOS>MOLECULE
ZINC00159096
 43 45 0 0 0
SMALL
NO_CHARGES


@<TRIPOS>ATOM
      1 C           5.329    -6.607    -6.189  C    
      2 O           4.856    -5.249    -6.146  O    
      3 C           4.644    -4.687    -4.912  C    
      4 C           5.581    -4.715    -3.853  C    
      5 C           5.311    -4.050    -2.644  C    
      6 C           4.118    -3.300    -2.469  C    
      7 C           3.187    -3.281    -3.534  C    
      8 C           3.450    -3.959    -4.739  C    
      9 C           3.849    -2.534    -1.213  C    
     10 O           4.089    -3.366    -0.081  O    
     11 P           4.723    -1.102    -1.109  P    
     12 O           4.392    -0.382    -2.317  O    
     13 C           4.319    -0.081     0.076  C    
     14 C           3.392    -0.415     1.095  C    
     15 C           3.087     0.497     2.124  C    
     16 C           3.701     1.759     2.155  C    
     17 C           4.621     2.111     1.153  C    
     18 C           4.924     1.200     0.124  C    
     19 C           6.313    -1.378    -1.031  C    
     20 C           6.869    -1.959     0.133  C    
     21 C           8.242    -2.250     0.211  C    
     22 C           9.085    -1.950    -0.872  C    
     23 C           8.557    -1.358    -2.027  C    
     24 C           7.181    -1.076    -2.111  C    
     25 H           6.381    -6.660    -5.903  H    
     26 H           5.239    -6.959    -7.218  H    
     27 H           4.739    -7.264    -5.545  H    
     28 H           6.473    -5.209    -3.958  H    
     29 H           6.004    -4.099    -1.894  H    
     30 H           2.315    -2.750    -3.452  H    
     31 H           2.769    -3.907    -5.499  H    
     32 H           2.790    -2.268    -1.177  H    
     33 H           3.483    -4.126    -0.196  H    
     34 H           2.927    -1.322     1.109  H    
     35 H           2.422     0.233     2.855  H    
     36 H           3.481     2.418     2.904  H    
     37 H           5.069     3.030     1.174  H    
     38 H           5.601     1.483    -0.590  H    
     39 H           6.285    -2.170     0.943  H    
     40 H           8.628    -2.676     1.054  H    
     41 H          10.082    -2.163    -0.815  H    
     42 H           9.169    -1.140    -2.816  H    
     43 H           6.832    -0.655    -2.975  H    
@<TRIPOS>BOND
     1    1    2 1
     2    2    3 1
     3    3    8 ar
     4    3    4 ar
     5    4    5 ar
     6    5    6 ar
     7    6    7 ar
     8    6    9 1
     9    7    8 ar
    10    9   10 1
    11    9   11 1
    12   11   12 2
    13   11   13 1
    14   11   19 1
    15   13   18 ar
    16   13   14 ar
    17   14   15 ar
    18   15   16 ar
    19   16   17 ar
    20   17   18 ar
    21   19   24 ar
    22   19   20 ar
    23   20   21 ar
    24   21   22 ar
    25   22   23 ar
    26   23   24 ar
    27    1   25 1
    28    1   26 1
    29    1   27 1
    30    4   28 1
    31    5   29 1
    32    7   30 1
    33    8   31 1
    34    9   32 1
    35   10   33 1
    36   14   34 1
    37   15   35 1
    38   16   36 1
    39   17   37 1
    40   18   38 1
    41   20   39 1
    42   21   40 1
    43   22   41 1
    44   23   42 1
    45   24   43 1
@<TRIPOS>MOLECULE
ZINC00172855
 33 34 0 0 0
SMALL
NO_CHARGES


@<TRIPOS>ATOM
      1 C           5.772    -9.986    -0.601  C    
      2 C           5.934   -10.381     0.742  C    
      3 C           5.800    -9.435     1.775  C    
      4 C           5.500    -8.081     1.479  C    
      5 C           5.336    -7.699     0.123  C    
      6 C           5.475    -8.645    -0.908  C    
      7 C           5.370    -7.086     2.571  C    
      8 S           7.018    -6.647     3.190  S    
      9 C           6.544    -5.643     4.623  C    
     10 C           5.894    -4.402     4.254  C    
     11 O           4.774    -4.185     4.698  O    
     12 N           6.563    -3.518     3.525  N    
     13 C           6.198    -2.279     3.064  C    
     14 C           4.857    -1.842     2.914  C    
     15 C           4.564    -0.561     2.415  C    
     16 C           5.607     0.309     2.052  C    
     17 C           6.944    -0.115     2.170  C    
     18 C           7.239    -1.399     2.671  C    
     19 F           8.498    -1.750     2.767  F    
     20 F           5.339     1.500     1.589  F    
     21 H           5.878   -10.672    -1.352  H    
     22 H           6.153   -11.355     0.965  H    
     23 H           5.925    -9.736     2.745  H    
     24 H           5.126    -6.727    -0.118  H    
     25 H           5.364    -8.357    -1.884  H    
     26 H           4.870    -6.178     2.215  H    
     27 H           4.766    -7.508     3.379  H    
     28 H           5.911    -6.251     5.277  H    
     29 H           7.451    -5.406     5.186  H    
     30 H           7.476    -3.772     3.322  H    
     31 H           4.075    -2.457     3.135  H    
     32 H           3.587    -0.261     2.315  H    
     33 H           7.703     0.513     1.897  H    
@<TRIPOS>BOND
     1    1    6 ar
     2    1    2 ar
     3    2    3 ar
     4    3    4 ar
     5    4    5 ar
     6    4    7 1
     7    5    6 ar
     8    7    8 1
     9    8    9 1
    10    9   10 1
    11   10   11 2
    12   10   12 1
    13   12   13 1
    14   13   18 ar
    15   13   14 ar
    16   14   15 ar
    17   15   16 ar
    18   16   17 ar
    19   16   20 1
    20   17   18 ar
    21   18   19 1
    22    1   21 1
    23    2   22 1
    24    3   23 1
    25    5   24 1
    26    6   25 1
    27    7   26 1
    28    7   27 1
    29    9   28 1
    30    9   29 1
    31   12   30 1
    32   14   31 1
    33   15   32 1
    34   17   33 1
@<TRIPOS>MOLECULE
ZINC00173936
 42 43 0 0 0
SMALL
NO_CHARGES


@<TRIPOS>ATOM
      1 C           5.130    -0.311     0.796  C    
      2 C           3.919    -0.893     1.375  C    
      3 C           4.041    -1.945     2.223  C    
      4 C           2.881    -2.563     2.849  C    
      5 C           1.673    -1.580     3.005  C    
      6 C           1.600    -0.646     1.879  C    
      7 C           2.670    -0.339     1.106  C    
      8 N           2.523     0.398     0.037  N    
      9 N           1.705     1.373    -0.090  N    
     10 C           1.515     2.046    -1.213  C    
     11 O           2.187     1.793    -2.209  O    
     12 N           0.590     2.991    -1.189  N    
     13 C           0.111     3.796    -2.189  C    
     14 C           0.217     3.531    -3.579  C    
     15 C          -0.352     4.407    -4.527  C    
     16 C          -1.043     5.555    -4.099  C    
     17 C          -1.177     5.821    -2.724  C    
     18 C          -0.609     4.943    -1.779  C    
     19 C           1.639    -0.856     4.297  C    
     20 C           0.573    -0.964     5.110  C    
     21 C           2.775    -0.020     4.695  C    
     22 H           5.121    -0.420    -0.291  H    
     23 H           6.052    -0.775     1.160  H    
     24 H           5.179     0.751     1.045  H    
     25 H           4.932    -2.349     2.407  H    
     26 H           2.586    -3.403     2.210  H    
     27 H           3.161    -2.983     3.819  H    
     28 H           0.784    -2.216     2.915  H    
     29 H           0.709    -0.244     1.682  H    
     30 H           3.085     0.213    -0.685  H    
     31 H           1.157     1.614     0.673  H    
     32 H           0.194     3.148    -0.316  H    
     33 H           0.675     2.688    -3.923  H    
     34 H          -0.273     4.203    -5.526  H    
     35 H          -1.458     6.190    -4.787  H    
     36 H          -1.690     6.649    -2.410  H    
     37 H          -0.726     5.150    -0.783  H    
     38 H           0.537    -0.490     5.981  H    
     39 H          -0.209    -1.521     4.861  H    
     40 H           3.660    -0.642     4.820  H    
     41 H           2.614     0.510     5.637  H    
     42 H           2.978     0.731     3.931  H    
@<TRIPOS>BOND
     1    1    2 1
     2    2    7 1
     3    2    3 2
     4    3    4 1
     5    4    5 1
     6    5    6 1
     7    5   19 1
     8    6    7 2
     9    7    8 1
    10    8    9 1
    11    9   10 1
    12   10   11 2
    13   10   12 1
    14   12   13 1
    15   13   18 ar
    16   13   14 ar
    17   14   15 ar
    18   15   16 ar
    19   16   17 ar
    20   17   18 ar
    21   19   20 2
    22   19   21 1
    23    1   22 1
    24    1   23 1
    25    1   24 1
    26    3   25 1
    27    4   26 1
    28    4   27 1
    29    5   28 1
    30    6   29 1
    31    8   30 1
    32    9   31 1
    33   12   32 1
    34   14   33 1
    35   15   34 1
    36   16   35 1
    37   17   36 1
    38   18   37 1
    39   20   38 1
    40   20   39 1
    41   21   40 1
    42   21   41 1
    43   21   42 1
@<TRIPOS>MOLECULE
ZINC00200543
 40 41 0 0 0
SMALL
NO_CHARGES


@<TRIPOS>ATOM
      1 C           4.747    -3.249    -2.114  C    
      2 C           4.973    -5.195    -0.566  C    
      3 C           3.953    -5.826     0.423  C    
      4 C           4.196    -7.274     0.619  C    
      5 C           4.728    -7.799     1.821  C    
      6 C           4.965    -9.181     1.928  C    
      7 C           4.665   -10.030     0.846  C    
      8 C           4.132    -9.470    -0.329  C    
      9 N           3.917    -8.132    -0.407  N    
     10 C           5.757    -2.877     0.102  C    
     11 C           5.552    -3.013     1.565  C    
     12 C           4.370    -2.521     2.160  C    
     13 C           4.145    -2.677     3.537  C    
     14 C           5.088    -3.326     4.359  C    
     15 C           6.282    -3.803     3.765  C    
     16 C           6.511    -3.646     2.386  C    
     17 O           4.733    -3.419     5.688  O    
     18 C           5.529    -4.177     6.613  C    
     19 N           4.785    -3.701    -0.694  N    
     20 H           5.705    -3.438    -2.608  H    
     21 H           4.524    -2.183    -2.174  H    
     22 H           3.959    -3.773    -2.659  H    
     23 H           5.988    -5.436    -0.239  H    
     24 H           4.827    -5.698    -1.528  H    
     25 H           4.008    -5.305     1.381  H    
     26 H           2.941    -5.685     0.041  H    
     27 H           4.961    -7.183     2.604  H    
     28 H           5.361    -9.568     2.787  H    
     29 H           4.835   -11.036     0.913  H    
     30 H           3.909   -10.065    -1.130  H    
     31 H           5.638    -1.814    -0.129  H    
     32 H           6.782    -3.143    -0.182  H    
     33 H           3.660    -2.057     1.587  H    
     34 H           3.276    -2.319     3.941  H    
     35 H           6.992    -4.272     4.326  H    
     36 H           7.375    -4.016     1.983  H    
     37 H           5.617    -5.220     6.296  H    
     38 H           5.034    -4.152     7.586  H    
     39 H           6.519    -3.724     6.722  H    
     40 H           3.859    -3.497    -0.318  H    
@<TRIPOS>BOND
     1    1   19 1
     2    2    3 1
     3    2   19 1
     4    3    4 1
     5    4    9 ar
     6    4    5 ar
     7    5    6 ar
     8    6    7 ar
     9    7    8 ar
    10    8    9 ar
    11   10   11 1
    12   10   19 1
    13   11   16 ar
    14   11   12 ar
    15   12   13 ar
    16   13   14 ar
    17   14   15 ar
    18   14   17 1
    19   15   16 ar
    20   17   18 1
    21    1   20 1
    22    1   21 1
    23    1   22 1
    24    2   23 1
    25    2   24 1
    26    3   25 1
    27    3   26 1
    28    5   27 1
    29    6   28 1
    30    7   29 1
    31    8   30 1
    32   10   31 1
    33   10   32 1
    34   12   33 1
    35   13   34 1
    36   15   35 1
    37   16   36 1
    38   18   37 1
    39   18   38 1
    40   18   39 1
    41   19   40 1
@<TRIPOS>MOLECULE
ZINC00201133
 39 41 0 0 0
SMALL
NO_CHARGES


@<TRIPOS>ATOM
      1 C           1.595     2.143   -10.376  C    
      2 C           2.094     1.007   -11.291  C    
      3 O           1.869    -0.250   -10.654  O    
      4 C           2.055    -1.479   -11.202  C    
      5 O           2.397    -1.613   -12.505  O    
      6 C           1.769    -2.631   -10.452  C    
      7 C           1.760    -2.786    -9.055  C    
      8 C           1.255    -4.062    -8.817  C    
      9 C           1.003    -4.755    -7.620  C    
     10 C           0.504    -6.074    -7.690  C    
     11 C           0.276    -6.687    -8.945  C    
     12 C           0.536    -5.981   -10.144  C    
     13 C           1.025    -4.662   -10.055  C    
     14 N           1.343    -3.781   -11.013  N    
     15 N           2.156    -1.956    -8.042  N    
     16 C           3.238    -1.183    -8.003  C    
     17 O           3.991    -1.120    -8.968  O    
     18 C           3.585    -0.481    -6.843  C    
     19 C           3.398    -1.033    -5.541  C    
     20 C           3.786    -0.317    -4.390  C    
     21 C           4.359     0.959    -4.508  C    
     22 C           4.542     1.527    -5.777  C    
     23 C           4.168     0.817    -6.934  C    
     24 F           4.358     1.414    -8.084  F    
     25 F           2.913    -2.235    -5.353  F    
     26 H           0.518     2.051   -10.214  H    
     27 H           1.800     3.116   -10.830  H    
     28 H           2.102     2.092    -9.411  H    
     29 H           1.562     1.041   -12.245  H    
     30 H           3.164     1.125   -11.475  H    
     31 H           1.174    -4.313    -6.715  H    
     32 H           0.307    -6.587    -6.831  H    
     33 H          -0.082    -7.650    -8.985  H    
     34 H           0.379    -6.427   -11.052  H    
     35 H           1.235    -3.932   -11.965  H    
     36 H           1.641    -2.018    -7.220  H    
     37 H           3.663    -0.728    -3.460  H    
     38 H           4.646     1.472    -3.669  H    
     39 H           4.951     2.464    -5.857  H    
@<TRIPOS>BOND
     1    1    2 1
     2    2    3 1
     3    3    4 1
     4    4    5 2
     5    4    6 1
     6    6   14 1
     7    6    7 2
     8    7    8 1
     9    7   15 1
    10    8   13 ar
    11    8    9 ar
    12    9   10 ar
    13   10   11 ar
    14   11   12 ar
    15   12   13 ar
    16   13   14 1
    17   15   16 1
    18   16   17 2
    19   16   18 1
    20   18   23 ar
    21   18   19 ar
    22   19   20 ar
    23   19   25 1
    24   20   21 ar
    25   21   22 ar
    26   22   23 ar
    27   23   24 1
    28    1   26 1
    29    1   27 1
    30    1   28 1
    31    2   29 1
    32    2   30 1
    33    9   31 1
    34   10   32 1
    35   11   33 1
    36   12   34 1
    37   14   35 1
    38   15   36 1
    39   20   37 1
    40   21   38 1
    41   22   39 1
@<TRIPOS>MOLECULE
ZINC00201611
 30 31 0 0 0
SMALL
NO_CHARGES


@<TRIPOS>ATOM
      1 C           1.236     8.060     0.177  C    
      2 O           0.992     6.708     0.574  O    
      3 C           0.610     6.285     1.809  C    
      4 O           0.366     7.205     2.773  O    
      5 C           0.432     4.898     2.066  C    
      6 C          -0.067     4.082     1.020  C    
      7 C          -0.293     2.709     1.217  C    
      8 C          -0.014     2.126     2.462  C    
      9 C           0.502     2.913     3.503  C    
     10 C           0.741     4.300     3.324  C    
     11 N           1.298     5.043     4.317  N    
     12 N           1.654     4.597     5.453  N    
     13 C           2.198     5.240     6.424  C    
     14 C           2.551     4.668     7.591  C    
     15 N           3.071     5.629     8.362  N    
     16 O           3.077     6.798     7.758  O    
     17 C           2.537     6.527     6.566  C    
     18 N           2.380     7.445     5.692  N    
     19 N           2.425     3.383     7.959  N    
     20 H           0.345     8.671     0.332  H    
     21 H           1.499     8.077    -0.881  H    
     22 H           2.066     8.474     0.754  H    
     23 H          -0.297     4.481     0.105  H    
     24 H          -0.666     2.135     0.458  H    
     25 H          -0.181     1.126     2.608  H    
     26 H           0.713     2.456     4.395  H    
     27 H           1.465     5.979     4.138  H    
     28 H           2.645     8.321     5.881  H    
     29 H           2.720     3.100     8.838  H    
     30 H           2.040     2.737     7.347  H    
@<TRIPOS>BOND
     1    1    2 1
     2    2    3 1
     3    3    4 2
     4    3    5 1
     5    5   10 ar
     6    5    6 ar
     7    6    7 ar
     8    7    8 ar
     9    8    9 ar
    10    9   10 ar
    11   10   11 1
    12   11   12 1
    13   12   13 2
    14   13   17 1
    15   13   14 1
    16   14   15 2
    17   14   19 1
    18   15   16 1
    19   16   17 1
    20   17   18 2
    21    1   20 1
    22    1   21 1
    23    1   22 1
    24    6   23 1
    25    7   24 1
    26    8   25 1
    27    9   26 1
    28   11   27 1
    29   18   28 1
    30   19   29 1
    31   19   30 1
@<TRIPOS>MOLECULE
ZINC00201901
 48 50 0 0 0
SMALL
NO_CHARGES


@<TRIPOS>ATOM
      1 C           7.605    -1.653    -5.287  C    
      2 C           6.079    -1.616    -5.534  C    
      3 O           5.452    -2.700    -4.824  O    
      4 C           4.083    -2.678    -4.883  C    
      5 C           3.503    -3.319    -6.003  C    
      6 C           2.114    -3.297    -6.202  C    
      7 C           1.294    -2.638    -5.277  C    
      8 C           1.865    -2.011    -4.154  C    
      9 C           3.273    -2.011    -3.909  C    
     10 N           3.773    -1.436    -2.749  N    
     11 C           4.903    -2.042    -2.047  C    
     12 C           3.913    -1.122    -0.005  C    
     13 N           3.235    -0.227    -0.826  N    
     14 C           3.145    -0.405    -2.110  C    
     15 S           2.622     0.970    -2.975  S    
     16 C           6.081    -2.386     0.141  C    
     17 C           6.842    -1.598     1.251  C    
     18 C           7.788    -2.472     1.998  C    
     19 C           7.320    -3.331     3.020  C    
     20 C           8.216    -4.157     3.726  C    
     21 C           9.585    -4.150     3.407  C    
     22 C          10.063    -3.309     2.391  C    
     23 C           9.170    -2.474     1.693  C    
     24 N           5.189    -1.504    -0.675  N    
     25 H           7.815    -1.482    -4.222  H    
     26 H           8.092    -0.872    -5.877  H    
     27 H           8.015    -2.631    -5.581  H    
     28 H           5.699    -0.649    -5.186  H    
     29 H           5.891    -1.708    -6.611  H    
     30 H           4.097    -3.800    -6.684  H    
     31 H           1.700    -3.762    -7.016  H    
     32 H           0.279    -2.629    -5.409  H    
     33 H           1.220    -1.591    -3.480  H    
     34 H           4.723    -3.119    -1.982  H    
     35 H           5.818    -1.875    -2.612  H    
     36 H           4.100    -0.624     0.949  H    
     37 H           3.286    -2.002     0.175  H    
     38 H           2.975     0.596    -0.469  H    
     39 H           6.845    -2.829    -0.514  H    
     40 H           5.507    -3.211     0.578  H    
     41 H           7.384    -0.767     0.781  H    
     42 H           6.134    -1.152     1.959  H    
     43 H           6.326    -3.354     3.261  H    
     44 H           7.867    -4.772     4.464  H    
     45 H          10.232    -4.759     3.912  H    
     46 H          11.060    -3.301     2.157  H    
     47 H           9.539    -1.866     0.959  H    
     48 H           5.705    -0.632    -0.822  H    
@<TRIPOS>BOND
     1    1    2 1
     2    2    3 1
     3    3    4 1
     4    4    9 ar
     5    4    5 ar
     6    5    6 ar
     7    6    7 ar
     8    7    8 ar
     9    8    9 ar
    10    9   10 1
    11   10   14 1
    12   10   11 1
    13   11   24 1
    14   12   13 1
    15   12   24 1
    16   13   14 1
    17   14   15 2
    18   16   17 1
    19   16   24 1
    20   17   18 1
    21   18   23 ar
    22   18   19 ar
    23   19   20 ar
    24   20   21 ar
    25   21   22 ar
    26   22   23 ar
    27    1   25 1
    28    1   26 1
    29    1   27 1
    30    2   28 1
    31    2   29 1
    32    5   30 1
    33    6   31 1
    34    7   32 1
    35    8   33 1
    36   11   34 1
    37   11   35 1
    38   12   36 1
    39   12   37 1
    40   13   38 1
    41   16   39 1
    42   16   40 1
    43   17   41 1
    44   17   42 1
    45   19   43 1
    46   20   44 1
    47   21   45 1
    48   22   46 1
    49   23   47 1
    50   24   48 1
@<TRIPOS>MOLECULE
ZINC00208789
 42 43 0 0 0
SMALL
NO_CHARGES


@<TRIPOS>ATOM
      1 C           6.591   -10.895     0.529  C    
      2 C           5.567    -9.733     0.507  C    
      3 C           7.153    -7.808     0.114  C    
      4 C           8.559    -7.898     0.761  C    
      5 C           4.983    -7.477     1.361  C    
      6 C           5.371    -6.306     2.136  C    
      7 O           6.007    -6.488     3.169  O    
      8 N           4.876    -5.126     1.789  N    
      9 C           4.973    -3.905     2.389  C    
     10 C           5.811    -3.302     3.363  C    
     11 C           5.585    -1.903     3.534  C    
     12 C           4.446    -1.409     2.874  C    
     13 S           3.852    -2.695     1.923  S    
     14 C           3.946    -0.023     2.903  C    
     15 C           4.576     0.796     4.061  C    
     16 C           6.099     0.529     4.174  C    
     17 C           6.417    -0.982     4.366  C    
     18 C           6.963    -3.827     3.690  C    
     19 N           7.941    -4.319     4.026  N    
     20 N           6.104    -8.416     1.002  N    
     21 H           7.386   -10.723    -0.193  H    
     22 H           6.088   -11.828     0.271  H    
     23 H           7.017   -10.989     1.528  H    
     24 H           5.162    -9.630    -0.506  H    
     25 H           4.741   -10.073     1.143  H    
     26 H           6.972    -6.746    -0.090  H    
     27 H           7.203    -8.286    -0.872  H    
     28 H           8.567    -7.346     1.699  H    
     29 H           9.303    -7.468     0.091  H    
     30 H           8.822    -8.937     0.955  H    
     31 H           4.247    -7.994     1.982  H    
     32 H           4.460    -7.186     0.440  H    
     33 H           4.304    -5.134     1.025  H    
     34 H           4.184     0.448     1.945  H    
     35 H           2.858    -0.029     3.021  H    
     36 H           4.396     1.863     3.895  H    
     37 H           4.095     0.524     5.008  H    
     38 H           6.582     0.889     3.261  H    
     39 H           6.512     1.104     5.009  H    
     40 H           6.272    -1.248     5.414  H    
     41 H           7.472    -1.125     4.132  H    
     42 H           6.566    -8.632     1.892  H    
@<TRIPOS>BOND
     1    1    2 1
     2    2   20 1
     3    3    4 1
     4    3   20 1
     5    5    6 1
     6    5   20 1
     7    6    7 2
     8    6    8 1
     9    8    9 1
    10    9   13 1
    11    9   10 2
    12   10   11 1
    13   10   18 1
    14   11   17 1
    15   11   12 2
    16   12   13 1
    17   12   14 1
    18   14   15 1
    19   15   16 1
    20   16   17 1
    21   18   19 3
    22    1   21 1
    23    1   22 1
    24    1   23 1
    25    2   24 1
    26    2   25 1
    27    3   26 1
    28    3   27 1
    29    4   28 1
    30    4   29 1
    31    4   30 1
    32    5   31 1
    33    5   32 1
    34    8   33 1
    35   14   34 1
    36   14   35 1
    37   15   36 1
    38   15   37 1
    39   16   38 1
    40   16   39 1
    41   17   40 1
    42   17   41 1
    43   20   42 1
@<TRIPOS>MOLECULE
ZINC00228663
 46 48 0 0 0
SMALL
NO_CHARGES


@<TRIPOS>ATOM
      1 C          -3.719     8.878     1.075  C    
      2 O          -5.085     8.921     0.629  O    
      3 C          -5.746     7.733     0.798  C    
      4 C          -6.353     7.406     2.028  C    
      5 C          -7.057     6.196     2.171  C    
      6 C          -7.176     5.286     1.087  C    
      7 C          -6.587     5.635    -0.156  C    
      8 C          -5.897     6.860    -0.298  C    
      9 O          -6.681     4.820    -1.256  O    
     10 C          -5.608     3.876    -1.361  C    
     11 C          -7.872     4.083     1.220  C    
     12 N          -7.895     3.304     2.249  N    
     13 N          -7.306     3.362     3.348  N    
     14 C          -8.071     3.106     4.502  C    
     15 C          -7.452     3.790     5.751  C    
     16 N          -6.028     3.498     5.848  N    
     17 C          -5.290     3.837     4.636  C    
     18 C          -5.913     3.128     3.404  C    
     19 C          -5.411     2.940     6.950  C    
     20 C          -6.023     2.721     8.218  C    
     21 C          -5.307     2.128     9.275  C    
     22 C          -3.966     1.755     9.089  C    
     23 C          -3.366     1.993     7.842  C    
     24 N          -4.101     2.560     6.855  N    
     25 H          -3.667     8.763     2.158  H    
     26 H          -3.249     9.825     0.812  H    
     27 H          -3.159     8.070     0.592  H    
     28 H          -6.295     8.055     2.818  H    
     29 H          -7.516     6.004     3.063  H    
     30 H          -5.486     7.110    -1.203  H    
     31 H          -4.651     4.382    -1.467  H    
     32 H          -5.769     3.267    -2.254  H    
     33 H          -5.575     3.210    -0.490  H    
     34 H          -8.362     3.741     0.429  H    
     35 H          -9.098     3.471     4.385  H    
     36 H          -8.118     2.026     4.671  H    
     37 H          -7.588     4.872     5.672  H    
     38 H          -8.042     3.461     6.600  H    
     39 H          -5.342     4.922     4.485  H    
     40 H          -4.229     3.583     4.665  H    
     41 H          -5.724     2.050     3.470  H    
     42 H          -5.405     3.495     2.506  H    
     43 H          -6.979     3.009     8.417  H    
     44 H          -5.760     1.975    10.182  H    
     45 H          -3.435     1.324     9.849  H    
     46 H          -2.389     1.741     7.669  H    
@<TRIPOS>BOND
     1    1    2 1
     2    2    3 1
     3    3    8 ar
     4    3    4 ar
     5    4    5 ar
     6    5    6 ar
     7    6    7 ar
     8    6   11 1
     9    7    8 ar
    10    7    9 1
    11    9   10 1
    12   11   12 2
    13   12   13 1
    14   13   18 1
    15   13   14 1
    16   14   15 1
    17   15   16 1
    18   16   17 1
    19   16   19 1
    20   17   18 1
    21   19   24 ar
    22   19   20 ar
    23   20   21 ar
    24   21   22 ar
    25   22   23 ar
    26   23   24 ar
    27    1   25 1
    28    1   26 1
    29    1   27 1
    30    4   28 1
    31    5   29 1
    32    8   30 1
    33   10   31 1
    34   10   32 1
    35   10   33 1
    36   11   34 1
    37   14   35 1
    38   14   36 1
    39   15   37 1
    40   15   38 1
    41   17   39 1
    42   17   40 1
    43   18   41 1
    44   18   42 1
    45   20   43 1
    46   21   44 1
    47   22   45 1
    48   23   46 1
@<TRIPOS>MOLECULE
ZINC00236594
 33 34 0 0 0
SMALL
NO_CHARGES


@<TRIPOS>ATOM
      1 C           6.365    -6.677    -1.663  C    
      2 C           6.352    -5.520    -0.870  C    
      3 C           5.779    -5.534     0.420  C    
      4 C           5.208    -6.740     0.892  C    
      5 C           5.193    -7.923     0.109  C    
      6 C           5.791    -7.866    -1.178  C    
      7 N           4.628    -9.071     0.575  N    
      8 O           4.632   -10.103    -0.050  O    
      9 O           4.054    -9.148     1.745  O    
     10 N           5.850    -4.375     1.125  N    
     11 C           5.391    -4.116     2.454  C    
     12 C           3.848    -3.908     2.530  C    
     13 C           3.436    -3.463     3.964  C    
     14 C           4.270    -2.246     4.450  C    
     15 C           5.782    -2.518     4.239  C    
     16 O           6.068    -2.917     2.885  O    
     17 O           4.022    -1.976     5.830  O    
     18 O           2.044    -3.154     4.019  O    
     19 O           3.426    -2.946     1.558  O    
     20 H           6.796    -6.658    -2.591  H    
     21 H           6.772    -4.660    -1.241  H    
     22 H           4.802    -6.763     1.828  H    
     23 H           5.814    -8.695    -1.779  H    
     24 H           6.311    -3.643     0.686  H    
     25 H           5.700    -4.941     3.102  H    
     26 H           3.340    -4.845     2.297  H    
     27 H           3.601    -4.300     4.650  H    
     28 H           3.992    -1.361     3.875  H    
     29 H           6.346    -1.606     4.446  H    
     30 H           6.134    -3.291     4.933  H    
     31 H           3.067    -1.758     5.883  H    
     32 H           1.920    -2.388     3.417  H    
     33 H           3.891    -2.115     1.789  H    
@<TRIPOS>BOND
     1    1    6 ar
     2    1    2 ar
     3    2    3 ar
     4    3    4 ar
     5    3   10 1
     6    4    5 ar
     7    5    6 ar
     8    5    7 1
     9    7    8 2
    10    7    9 1
    11   10   11 1
    12   11   16 1
    13   11   12 1
    14   12   13 1
    15   12   19 1
    16   13   14 1
    17   13   18 1
    18   14   15 1
    19   14   17 1
    20   15   16 1
    21    1   20 1
    22    2   21 1
    23    4   22 1
    24    6   23 1
    25   10   24 1
    26   11   25 1
    27   12   26 1
    28   13   27 1
    29   14   28 1
    30   15   29 1
    31   15   30 1
    32   17   31 1
    33   18   32 1
    34   19   33 1
@<TRIPOS>MOLECULE
ZINC00247830
 39 40 0 0 0
SMALL
NO_CHARGES


@<TRIPOS>ATOM
      1 C           5.882   -10.464    -2.728  C    
      2 C           5.400    -9.542    -1.668  C    
      3 C           5.674    -9.774    -0.303  C    
      4 C           5.203    -8.885     0.685  C    
      5 C           4.447    -7.734     0.345  C    
      6 C           4.171    -7.518    -1.030  C    
      7 C           4.643    -8.404    -2.018  C    
      8 C           3.952    -6.852     1.323  C    
      9 O           2.792    -6.236     1.091  O    
     10 C           4.608    -6.564     2.465  C    
     11 C           4.131    -5.803     3.490  C    
     12 O           2.984    -5.987     3.881  O    
     13 C           5.001    -4.889     4.216  C    
     14 O           4.363    -4.366     5.402  O    
     15 C           5.083    -3.425     6.087  C    
     16 C           6.191    -3.782     6.888  C    
     17 C           6.874    -2.800     7.629  C    
     18 C           6.449    -1.448     7.600  C    
     19 C           5.324    -1.103     6.813  C    
     20 C           4.647    -2.083     6.065  C    
     21 C           7.180    -0.434     8.391  C    
     22 H           5.032   -10.857    -3.289  H    
     23 H           6.444   -11.310    -2.318  H    
     24 H           6.530    -9.921    -3.417  H    
     25 H           6.216   -10.596    -0.015  H    
     26 H           5.401    -9.106     1.663  H    
     27 H           3.639    -6.696    -1.331  H    
     28 H           4.433    -8.212    -3.002  H    
     29 H           2.313    -6.797     0.445  H    
     30 H           5.532    -6.919     2.575  H    
     31 H           5.911    -5.425     4.504  H    
     32 H           5.276    -4.075     3.540  H    
     33 H           6.497    -4.761     6.936  H    
     34 H           7.681    -3.073     8.200  H    
     35 H           4.989    -0.135     6.780  H    
     36 H           3.828    -1.823     5.508  H    
     37 H           7.186    -0.721     9.446  H    
     38 H           6.727     0.558     8.310  H    
     39 H           8.212    -0.370     8.038  H    
@<TRIPOS>BOND
     1    1    2 1
     2    2    7 ar
     3    2    3 ar
     4    3    4 ar
     5    4    5 ar
     6    5    6 ar
     7    5    8 1
     8    6    7 ar
     9    8   10 2
    10    8    9 1
    11   10   11 1
    12   11   13 1
    13   11   12 2
    14   13   14 1
    15   14   15 1
    16   15   20 ar
    17   15   16 ar
    18   16   17 ar
    19   17   18 ar
    20   18   19 ar
    21   18   21 1
    22   19   20 ar
    23    1   22 1
    24    1   23 1
    25    1   24 1
    26    3   25 1
    27    4   26 1
    28    6   27 1
    29    7   28 1
    30    9   29 1
    31   10   30 1
    32   13   31 1
    33   13   32 1
    34   16   33 1
    35   17   34 1
    36   19   35 1
    37   20   36 1
    38   21   37 1
    39   21   38 1
    40   21   39 1
@<TRIPOS>MOLECULE
ZINC00253634
 49 50 0 0 0
SMALL
NO_CHARGES


@<TRIPOS>ATOM
      1 C           4.270   -11.010     2.653  C    
      2 C           4.943    -9.654     3.013  C    
      3 C           6.433    -9.907     3.394  C    
      4 C           4.784    -8.603     1.861  C    
      5 C           4.583    -7.100     2.256  C    
      6 N           5.734    -6.420     2.824  N    
      7 C           6.463    -5.598     1.874  C    
      8 C           5.850    -5.843     0.477  C    
      9 S           4.114    -6.180     0.772  S    
     10 C           6.434    -4.172     2.202  C    
     11 O           7.488    -3.542     2.193  O    
     12 N           5.285    -3.562     2.473  N    
     13 C           5.097    -2.190     2.844  C    
     14 C           5.657    -1.907     4.272  C    
     15 C           5.345    -0.462     4.740  C    
     16 C           3.829    -0.152     4.671  C    
     17 C           3.262    -0.418     3.254  C    
     18 C           3.578    -1.860     2.771  C    
     19 C           6.061    -6.515     4.130  C    
     20 O           5.318    -7.100     4.908  O    
     21 C           7.292    -5.999     4.722  C    
     22 H           4.720   -11.436     1.754  H    
     23 H           3.200   -10.865     2.474  H    
     24 H           4.376   -11.724     3.475  H    
     25 H           4.423    -9.281     3.900  H    
     26 H           6.492   -10.517     4.301  H    
     27 H           6.962    -8.972     3.586  H    
     28 H           6.958   -10.426     2.586  H    
     29 H           5.636    -8.698     1.184  H    
     30 H           3.900    -8.882     1.277  H    
     31 H           3.721    -7.024     2.922  H    
     32 H           7.502    -5.948     1.837  H    
     33 H           5.954    -4.994    -0.200  H    
     34 H           6.313    -6.712     0.005  H    
     35 H           4.485    -4.111     2.418  H    
     36 H           5.614    -1.552     2.120  H    
     37 H           5.224    -2.615     4.986  H    
     38 H           6.739    -2.044     4.278  H    
     39 H           5.693    -0.333     5.769  H    
     40 H           5.890     0.250     4.113  H    
     41 H           3.298    -0.772     5.400  H    
     42 H           3.659     0.897     4.938  H    
     43 H           2.179    -0.271     3.267  H    
     44 H           3.689     0.300     2.551  H    
     45 H           3.230    -1.967     1.737  H    
     46 H           3.011    -2.572     3.384  H    
     47 H           8.153    -6.419     4.198  H    
     48 H           7.383    -6.265     5.779  H    
     49 H           7.320    -4.911     4.660  H    
@<TRIPOS>BOND
     1    1    2 1
     2    2    3 1
     3    2    4 1
     4    4    5 1
     5    5    9 1
     6    5    6 1
     7    6    7 1
     8    6   19 1
     9    7    8 1
    10    7   10 1
    11    8    9 1
    12   10   11 2
    13   10   12 1
    14   12   13 1
    15   13   18 1
    16   13   14 1
    17   14   15 1
    18   15   16 1
    19   16   17 1
    20   17   18 1
    21   19   20 2
    22   19   21 1
    23    1   22 1
    24    1   23 1
    25    1   24 1
    26    2   25 1
    27    3   26 1
    28    3   27 1
    29    3   28 1
    30    4   29 1
    31    4   30 1
    32    5   31 1
    33    7   32 1
    34    8   33 1
    35    8   34 1
    36   12   35 1
    37   13   36 1
    38   14   37 1
    39   14   38 1
    40   15   39 1
    41   15   40 1
    42   16   41 1
    43   16   42 1
    44   17   43 1
    45   17   44 1
    46   18   45 1
    47   18   46 1
    48   21   47 1
    49   21   48 1
    50   21   49 1
@<TRIPOS>MOLECULE
ZINC00261758
 53 54 0 0 0
SMALL
NO_CHARGES


@<TRIPOS>ATOM
      1 C           3.894   -12.868    -2.101  C    
      2 C           3.904   -11.573    -1.365  C    
      3 C           3.311   -10.439    -1.963  C    
      4 C           3.298    -9.199    -1.307  C    
      5 C           3.868    -9.042    -0.029  C    
      6 C           4.463   -10.179     0.574  C    
      7 C           4.493   -11.440    -0.074  C    
      8 C           5.139   -12.598     0.612  C    
      9 N           3.758    -7.776     0.496  N    
     10 C           4.175    -7.202     1.625  C    
     11 O           4.821    -7.902     2.395  O    
     12 N           3.909    -5.903     1.925  N    
     13 C           4.370    -5.322     3.206  C    
     14 C           5.392    -4.157     3.038  C    
     15 C           5.828    -3.595     4.418  C    
     16 N           4.674    -3.221     5.230  N    
     17 C           3.731    -4.304     5.479  C    
     18 C           3.198    -4.891     4.142  C    
     19 C           4.514    -1.971     5.712  C    
     20 O           5.349    -1.102     5.478  O    
     21 C           3.393    -1.525     6.528  C    
     22 C           3.149    -5.035     1.002  C    
     23 C           3.884    -4.757    -0.345  C    
     24 C           1.662    -5.463     0.817  C    
     25 H           4.919   -13.204    -2.262  H    
     26 H           3.409   -12.799    -3.077  H    
     27 H           3.359   -13.615    -1.515  H    
     28 H           2.881   -10.505    -2.891  H    
     29 H           2.857    -8.399    -1.780  H    
     30 H           4.877   -10.094     1.506  H    
     31 H           4.412   -13.398     0.759  H    
     32 H           5.541   -12.329     1.590  H    
     33 H           5.964   -12.974     0.005  H    
     34 H           3.269    -7.182    -0.086  H    
     35 H           4.916    -6.075     3.787  H    
     36 H           6.273    -4.525     2.506  H    
     37 H           4.962    -3.336     2.459  H    
     38 H           6.404    -4.355     4.954  H    
     39 H           6.521    -2.773     4.230  H    
     40 H           4.239    -5.091     6.045  H    
     41 H           2.864    -4.014     6.073  H    
     42 H           2.572    -4.132     3.663  H    
     43 H           2.572    -5.762     4.360  H    
     44 H           2.457    -1.640     5.981  H    
     45 H           3.479    -0.473     6.816  H    
     46 H           3.350    -2.113     7.443  H    
     47 H           3.059    -4.036     1.441  H    
     48 H           4.913    -4.443    -0.144  H    
     49 H           3.385    -3.950    -0.889  H    
     50 H           3.915    -5.629    -1.002  H    
     51 H           1.551    -6.372     0.222  H    
     52 H           1.099    -4.670     0.319  H    
     53 H           1.203    -5.636     1.794  H    
@<TRIPOS>BOND
     1    1    2 1
     2    2    7 ar
     3    2    3 ar
     4    3    4 ar
     5    4    5 ar
     6    5    6 ar
     7    5    9 1
     8    6    7 ar
     9    7    8 1
    10    9   10 1
    11   10   11 2
    12   10   12 1
    13   12   13 1
    14   12   22 1
    15   13   18 1
    16   13   14 1
    17   14   15 1
    18   15   16 1
    19   16   17 1
    20   16   19 1
    21   17   18 1
    22   19   20 2
    23   19   21 1
    24   22   23 1
    25   22   24 1
    26    1   25 1
    27    1   26 1
    28    1   27 1
    29    3   28 1
    30    4   29 1
    31    6   30 1
    32    8   31 1
    33    8   32 1
    34    8   33 1
    35    9   34 1
    36   13   35 1
    37   14   36 1
    38   14   37 1
    39   15   38 1
    40   15   39 1
    41   17   40 1
    42   17   41 1
    43   18   42 1
    44   18   43 1
    45   21   44 1
    46   21   45 1
    47   21   46 1
    48   22   47 1
    49   23   48 1
    50   23   49 1
    51   23   50 1
    52   24   51 1
    53   24   52 1
    54   24   53 1
@<TRIPOS>MOLECULE
ZINC00265930
 37 38 0 0 0
SMALL
NO_CHARGES


@<TRIPOS>ATOM
      1 C           5.094    -8.826    -0.846  C    
      2 C           4.194    -9.687    -0.034  C    
      3 C           3.759   -10.925    -0.558  C    
      4 C           2.910   -11.764     0.182  C    
      5 C           2.472   -11.405     1.478  C    
      6 C           2.912   -10.162     1.994  C    
      7 C           3.745    -9.286     1.254  C    
      8 N           4.192    -8.091     1.763  N    
      9 C           3.589    -7.218     2.569  C    
     10 O           2.433    -7.423     2.923  O    
     11 C           4.221    -6.031     2.973  C    
     12 C           5.382    -5.534     2.324  C    
     13 C           6.003    -4.340     2.736  C    
     14 C           5.486    -3.597     3.818  C    
     15 C           4.338    -4.078     4.474  C    
     16 C           3.714    -5.269     4.058  C    
     17 O           6.013    -2.425     4.293  O    
     18 C           7.041    -1.610     3.932  C    
     19 O           7.837    -1.856     2.867  O    
     20 C           7.288    -0.413     4.745  C    
     21 N           1.662   -12.235     2.199  N    
     22 O           1.266   -11.961     3.302  O    
     23 O           1.252   -13.387     1.739  O    
     24 H           4.622    -7.856    -1.013  H    
     25 H           5.323    -9.260    -1.821  H    
     26 H           6.036    -8.676    -0.316  H    
     27 H           4.059   -11.230    -1.487  H    
     28 H           2.622   -12.651    -0.238  H    
     29 H           2.644    -9.904     2.945  H    
     30 H           5.062    -7.821     1.439  H    
     31 H           5.787    -6.022     1.522  H    
     32 H           6.831    -4.023     2.233  H    
     33 H           3.944    -3.556     5.262  H    
     34 H           2.883    -5.577     4.571  H    
     35 H           6.397     0.218     4.749  H    
     36 H           8.126     0.164     4.347  H    
     37 H           7.520    -0.710     5.769  H    
@<TRIPOS>BOND
     1    1    2 1
     2    2    7 ar
     3    2    3 ar
     4    3    4 ar
     5    4    5 ar
     6    5    6 ar
     7    5   21 1
     8    6    7 ar
     9    7    8 1
    10    8    9 1
    11    9   10 2
    12    9   11 1
    13   11   16 ar
    14   11   12 ar
    15   12   13 ar
    16   13   14 ar
    17   14   15 ar
    18   14   17 1
    19   15   16 ar
    20   17   18 1
    21   18   19 2
    22   18   20 1
    23   21   22 2
    24   21   23 1
    25    1   24 1
    26    1   25 1
    27    1   26 1
    28    3   27 1
    29    4   28 1
    30    6   29 1
    31    8   30 1
    32   12   31 1
    33   13   32 1
    34   15   33 1
    35   16   34 1
    36   20   35 1
    37   20   36 1
    38   20   37 1
@<TRIPOS>MOLECULE
ZINC00299816
 36 37 0 0 0
SMALL
NO_CHARGES


@<TRIPOS>ATOM
      1 C           3.263   -10.402    -0.188  C    
      2 C           4.622    -9.990     0.256  C    
      3 C           5.681   -10.920     0.105  C    
      4 C           6.987   -10.608     0.517  C    
      5 C           7.257    -9.359     1.090  C    
      6 C           6.220    -8.429     1.263  C    
      7 C           4.893    -8.717     0.850  C    
      8 C           3.905    -7.715     1.072  C    
      9 O           2.856    -7.543     0.233  O    
     10 O           4.042    -6.858     2.118  O    
     11 N           3.242    -5.861     2.405  N    
     12 C           3.475    -5.017     3.435  C    
     13 C           4.491    -5.217     4.408  C    
     14 C           4.650    -6.477     5.030  C    
     15 C           5.646    -6.669     6.001  C    
     16 C           6.493    -5.606     6.368  C    
     17 C           6.362    -4.326     5.773  C    
     18 C           5.345    -4.154     4.797  C    
     19 N           7.192    -3.299     6.132  N    
     20 O           7.119    -2.204     5.641  O    
     21 O           8.137    -3.439     7.024  O    
     22 N           2.685    -3.934     3.519  N    
     23 H           2.550   -10.277     0.631  H    
     24 H           3.228   -11.449    -0.507  H    
     25 H           2.954    -9.786    -1.036  H    
     26 H           5.512   -11.838    -0.312  H    
     27 H           7.738   -11.291     0.400  H    
     28 H           8.208    -9.124     1.381  H    
     29 H           6.456    -7.526     1.682  H    
     30 H           2.498    -5.673     1.809  H    
     31 H           4.031    -7.260     4.799  H    
     32 H           5.760    -7.586     6.442  H    
     33 H           7.213    -5.782     7.072  H    
     34 H           5.231    -3.241     4.346  H    
     35 H           2.812    -3.298     4.241  H    
     36 H           1.992    -3.778     2.857  H    
@<TRIPOS>BOND
     1    1    2 1
     2    2    7 ar
     3    2    3 ar
     4    3    4 ar
     5    4    5 ar
     6    5    6 ar
     7    6    7 ar
     8    7    8 1
     9    8    9 2
    10    8   10 1
    11   10   11 1
    12   11   12 1
    13   12   13 1
    14   12   22 2
    15   13   18 ar
    16   13   14 ar
    17   14   15 ar
    18   15   16 ar
    19   16   17 ar
    20   17   18 ar
    21   17   19 1
    22   19   20 2
    23   19   21 1
    24    1   23 1
    25    1   24 1
    26    1   25 1
    27    3   26 1
    28    4   27 1
    29    5   28 1
    30    6   29 1
    31   11   30 1
    32   14   31 1
    33   15   32 1
    34   16   33 1
    35   18   34 1
    36   22   35 1
    37   22   36 1
@<TRIPOS>MOLECULE
ZINC00276622
 38 39 0 0 0
SMALL
NO_CHARGES


@<TRIPOS>ATOM
      1 C           2.449   -10.870    -0.186  C    
      2 O           3.500   -10.064    -0.744  O    
      3 C           3.997    -9.140     0.134  C    
      4 C           5.053    -9.473     1.003  C    
      5 C           5.580    -8.509     1.878  C    
      6 C           5.086    -7.178     1.885  C    
      7 C           4.055    -6.839     0.972  C    
      8 C           3.510    -7.819     0.116  C    
      9 O           3.523    -5.574     0.928  O    
     10 C           4.209    -4.702     0.010  C    
     11 N           5.544    -6.189     2.698  N    
     12 C           6.496    -6.231     3.636  C    
     13 C           6.904    -5.139     4.303  C    
     14 C           6.451    -3.877     4.096  C    
     15 O           6.652    -3.420     2.977  O    
     16 C           5.892    -3.065     5.103  C    
     17 C           5.508    -3.591     6.369  C    
     18 C           4.944    -2.769     7.364  C    
     19 C           4.748    -1.401     7.119  C    
     20 C           5.112    -0.853     5.876  C    
     21 C           5.678    -1.676     4.883  C    
     22 H           2.804   -11.454     0.668  H    
     23 H           2.110   -11.566    -0.955  H    
     24 H           1.596   -10.259     0.121  H    
     25 H           5.433   -10.423     1.004  H    
     26 H           6.338    -8.793     2.500  H    
     27 H           2.757    -7.567    -0.528  H    
     28 H           5.250    -4.548     0.311  H    
     29 H           3.706    -3.734     0.022  H    
     30 H           4.182    -5.089    -1.013  H    
     31 H           5.126    -5.323     2.570  H    
     32 H           6.920    -7.096     3.874  H    
     33 H           7.591    -5.260     5.010  H    
     34 H           5.619    -4.585     6.582  H    
     35 H           4.674    -3.172     8.268  H    
     36 H           4.336    -0.806     7.841  H    
     37 H           4.969     0.144     5.694  H    
     38 H           5.933    -1.240     3.991  H    
@<TRIPOS>BOND
     1    1    2 1
     2    2    3 1
     3    3    8 ar
     4    3    4 ar
     5    4    5 ar
     6    5    6 ar
     7    6    7 ar
     8    6   11 1
     9    7    8 ar
    10    7    9 1
    11    9   10 1
    12   11   12 1
    13   12   13 2
    14   13   14 1
    15   14   15 2
    16   14   16 1
    17   16   21 ar
    18   16   17 ar
    19   17   18 ar
    20   18   19 ar
    21   19   20 ar
    22   20   21 ar
    23    1   22 1
    24    1   23 1
    25    1   24 1
    26    4   25 1
    27    5   26 1
    28    8   27 1
    29   10   28 1
    30   10   29 1
    31   10   30 1
    32   11   31 1
    33   12   32 1
    34   13   33 1
    35   17   34 1
    36   18   35 1
    37   19   36 1
    38   20   37 1
    39   21   38 1
@<TRIPOS>MOLECULE
ZINC00277613
 37 38 0 0 0
SMALL
NO_CHARGES


@<TRIPOS>ATOM
      1 C           5.321   -12.660    -2.774  C    
      2 N           5.030   -11.685    -1.773  N    
      3 C           3.954   -10.893    -1.712  C    
      4 O           3.093   -11.041    -2.577  O    
      5 C           3.767    -9.986    -0.676  C    
      6 C           2.731    -9.102    -0.673  C    
      7 C           2.482    -8.064     0.229  C    
      8 C           1.380    -7.210     0.251  C    
      9 C           1.543    -6.347     1.331  C    
     10 C           2.747    -6.676     1.956  C    
     11 O           3.277    -7.714     1.263  O    
     12 C           3.383    -6.102     3.087  C    
     13 C           2.817    -5.038     3.830  C    
     14 C           3.480    -4.492     4.944  C    
     15 C           4.739    -4.984     5.364  C    
     16 C           5.304    -6.047     4.620  C    
     17 C           4.640    -6.593     3.508  C    
     18 C           5.413    -4.435     6.483  C    
     19 O           6.621    -4.921     6.868  O    
     20 O           4.866    -3.413     7.199  O    
     21 C           5.459    -2.793     8.340  C    
     22 C           4.794    -9.714     0.053  C    
     23 N           5.687    -9.523     0.754  N    
     24 H           4.561   -13.443    -2.774  H    
     25 H           6.290   -13.115    -2.554  H    
     26 H           5.369   -12.193    -3.759  H    
     27 H           5.700   -11.585    -1.072  H    
     28 H           2.022    -9.213    -1.360  H    
     29 H           0.578    -7.212    -0.391  H    
     30 H           0.893    -5.608     1.600  H    
     31 H           1.910    -4.645     3.573  H    
     32 H           3.027    -3.725     5.446  H    
     33 H           6.212    -6.441     4.877  H    
     34 H           5.102    -7.362     3.010  H    
     35 H           5.607    -3.533     9.128  H    
     36 H           4.800    -2.007     8.707  H    
     37 H           6.420    -2.355     8.065  H    
@<TRIPOS>BOND
     1    1    2 1
     2    2    3 1
     3    3    4 2
     4    3    5 1
     5    5    6 2
     6    5   22 1
     7    6    7 1
     8    7   11 1
     9    7    8 2
    10    8    9 1
    11    9   10 2
    12   10   11 1
    13   10   12 1
    14   12   17 ar
    15   12   13 ar
    16   13   14 ar
    17   14   15 ar
    18   15   16 ar
    19   15   18 1
    20   16   17 ar
    21   18   19 2
    22   18   20 1
    23   20   21 1
    24   22   23 3
    25    1   24 1
    26    1   25 1
    27    1   26 1
    28    2   27 1
    29    6   28 1
    30    8   29 1
    31    9   30 1
    32   13   31 1
    33   14   32 1
    34   16   33 1
    35   17   34 1
    36   21   35 1
    37   21   36 1
    38   21   37 1
@<TRIPOS>MOLECULE
ZINC00287207
 41 43 0 0 0
SMALL
NO_CHARGES


@<TRIPOS>ATOM
      1 C           3.097    -3.691    -6.536  C    
      2 C           2.454    -2.514    -6.118  C    
      3 C           2.656    -2.023    -4.815  C    
      4 C           3.506    -2.702    -3.903  C    
      5 C           4.148    -3.887    -4.346  C    
      6 C           3.944    -4.377    -5.648  C    
      7 C           3.710    -2.175    -2.523  C    
      8 C           3.122    -3.106    -1.512  C    
      9 C           1.763    -2.964    -1.136  C    
     10 C           1.172    -3.839    -0.206  C    
     11 C           1.929    -4.876     0.362  C    
     12 C           3.281    -5.035     0.003  C    
     13 C           3.871    -4.161    -0.927  C    
     14 N           5.099    -1.880    -2.319  N    
     15 C           5.631    -1.245    -1.279  C    
     16 O           4.935    -0.893    -0.337  O    
     17 N           6.942    -1.051    -1.327  N    
     18 C           7.801    -0.407    -0.470  C    
     19 C           7.435     0.483     0.571  C    
     20 C           8.415     1.111     1.365  C    
     21 C           9.780     0.869     1.133  C    
     22 C          10.164    -0.007     0.101  C    
     23 C           9.182    -0.630    -0.694  C    
     24 F          10.687     1.449     1.870  F    
     25 H           2.951    -4.047    -7.485  H    
     26 H           1.833    -2.017    -6.762  H    
     27 H           2.172    -1.168    -4.537  H    
     28 H           4.772    -4.402    -3.725  H    
     29 H           4.409    -5.239    -5.950  H    
     30 H           3.201    -1.211    -2.440  H    
     31 H           1.188    -2.222    -1.544  H    
     32 H           0.186    -3.723     0.049  H    
     33 H           1.496    -5.516     1.034  H    
     34 H           3.828    -5.796     0.415  H    
     35 H           4.849    -4.306    -1.175  H    
     36 H           5.707    -2.136    -3.032  H    
     37 H           7.377    -1.448    -2.099  H    
     38 H           6.458     0.709     0.747  H    
     39 H           8.128     1.756     2.106  H    
     40 H          11.154    -0.188    -0.080  H    
     41 H           9.489    -1.257    -1.444  H    
@<TRIPOS>BOND
     1    1    6 ar
     2    1    2 ar
     3    2    3 ar
     4    3    4 ar
     5    4    5 ar
     6    4    7 1
     7    5    6 ar
     8    7    8 1
     9    7   14 1
    10    8   13 ar
    11    8    9 ar
    12    9   10 ar
    13   10   11 ar
    14   11   12 ar
    15   12   13 ar
    16   14   15 1
    17   15   16 2
    18   15   17 1
    19   17   18 1
    20   18   23 ar
    21   18   19 ar
    22   19   20 ar
    23   20   21 ar
    24   21   22 ar
    25   21   24 1
    26   22   23 ar
    27    1   25 1
    28    2   26 1
    29    3   27 1
    30    5   28 1
    31    6   29 1
    32    7   30 1
    33    9   31 1
    34   10   32 1
    35   11   33 1
    36   12   34 1
    37   13   35 1
    38   14   36 1
    39   17   37 1
    40   19   38 1
    41   20   39 1
    42   22   40 1
    43   23   41 1
@<TRIPOS>MOLECULE
ZINC00295411
 35 36 0 0 0
SMALL
NO_CHARGES


@<TRIPOS>ATOM
      1 C           0.025     4.997    10.035  C    
      2 C           0.503     6.033     8.992  C    
      3 C           1.481     7.071     9.602  C    
      4 C           1.933     8.150     8.580  C    
      5 C           2.189     9.597     8.999  C    
      6 O           0.969     9.187     8.369  O    
      7 C           2.082    10.035    10.403  C    
      8 C           1.011    10.849    10.834  C    
      9 C           0.943    11.284    12.171  C    
     10 C           1.951    10.918    13.084  C    
     11 C           3.030    10.122    12.657  C    
     12 C           3.094     9.679    11.325  C    
     13 C           2.632     7.725     7.357  C    
     14 O           3.972     7.531     7.407  O    
     15 O           1.914     7.488     6.227  O    
     16 C           2.445     7.027     4.979  C    
     17 C           1.301     6.878     3.956  C    
     18 H           0.876     4.442    10.441  H    
     19 H          -0.661     4.284     9.567  H    
     20 H          -0.499     5.495    10.855  H    
     21 H           0.999     5.496     8.177  H    
     22 H          -0.371     6.548     8.584  H    
     23 H           0.986     7.543    10.455  H    
     24 H           2.372     6.555     9.971  H    
     25 H           2.841    10.187     8.350  H    
     26 H           0.275    11.127    10.178  H    
     27 H           0.163    11.868    12.481  H    
     28 H           1.896    11.227    14.058  H    
     29 H           3.770     9.871    13.320  H    
     30 H           3.886     9.099    11.027  H    
     31 H           3.180     7.743     4.600  H    
     32 H           2.935     6.058     5.124  H    
     33 H           0.578     6.143     4.316  H    
     34 H           1.704     6.543     3.000  H    
     35 H           0.800     7.838     3.812  H    
@<TRIPOS>BOND
     1    1    2 1
     2    2    3 1
     3    3    4 1
     4    4    6 1
     5    4    5 1
     6    4   13 1
     7    5    6 1
     8    5    7 1
     9    7   12 ar
    10    7    8 ar
    11    8    9 ar
    12    9   10 ar
    13   10   11 ar
    14   11   12 ar
    15   13   14 2
    16   13   15 1
    17   15   16 1
    18   16   17 1
    19    1   18 1
    20    1   19 1
    21    1   20 1
    22    2   21 1
    23    2   22 1
    24    3   23 1
    25    3   24 1
    26    5   25 1
    27    8   26 1
    28    9   27 1
    29   10   28 1
    30   11   29 1
    31   12   30 1
    32   16   31 1
    33   16   32 1
    34   17   33 1
    35   17   34 1
    36   17   35 1
@<TRIPOS>MOLECULE
ZINC00301758
 43 44 0 0 0
SMALL
NO_CHARGES


@<TRIPOS>ATOM
      1 C           6.162    -4.928    -1.322  C    
      2 C           5.569    -5.305    -2.634  C    
      3 C           6.243    -6.240    -3.451  C    
      4 C           5.714    -6.619    -4.692  C    
      5 C           4.509    -6.060    -5.140  C    
      6 C           3.804    -5.122    -4.351  C    
      7 C           4.329    -4.761    -3.075  C    
      8 N           3.725    -3.836    -2.266  N    
      9 C           2.550    -3.952    -1.662  C    
     10 O           1.822    -4.919    -1.848  O    
     11 C           2.148    -2.959    -0.670  C    
     12 C           3.015    -3.081     0.607  C    
     13 O           2.267    -1.595    -1.136  O    
     14 C           1.456    -1.210    -2.172  C    
     15 C           0.069    -1.032    -1.986  C    
     16 C          -0.739    -0.593    -3.051  C    
     17 C          -0.164    -0.319    -4.304  C    
     18 C           1.221    -0.470    -4.489  C    
     19 C           2.038    -0.894    -3.420  C    
     20 O           3.383    -1.039    -3.626  O    
     21 C           4.145     0.129    -3.277  C    
     22 C           2.570    -4.505    -4.909  C    
     23 H           6.345    -3.853    -1.297  H    
     24 H           7.109    -5.435    -1.126  H    
     25 H           5.470    -5.189    -0.519  H    
     26 H           7.130    -6.653    -3.151  H    
     27 H           6.213    -7.294    -5.276  H    
     28 H           4.155    -6.341    -6.058  H    
     29 H           4.289    -3.110    -1.955  H    
     30 H           1.113    -3.143    -0.359  H    
     31 H           2.960    -4.093     1.016  H    
     32 H           2.656    -2.384     1.368  H    
     33 H           4.060    -2.845     0.392  H    
     34 H          -0.356    -1.219    -1.076  H    
     35 H          -1.745    -0.471    -2.913  H    
     36 H          -0.750     0.002    -5.079  H    
     37 H           1.637    -0.261    -5.400  H    
     38 H           3.815     1.005    -3.840  H    
     39 H           5.190    -0.060    -3.523  H    
     40 H           4.079     0.337    -2.207  H    
     41 H           2.646    -3.420    -4.863  H    
     42 H           1.697    -4.828    -4.344  H    
     43 H           2.403    -4.778    -5.953  H    
@<TRIPOS>BOND
     1    1    2 1
     2    2    7 ar
     3    2    3 ar
     4    3    4 ar
     5    4    5 ar
     6    5    6 ar
     7    6    7 ar
     8    6   22 1
     9    7    8 1
    10    8    9 1
    11    9   10 2
    12    9   11 1
    13   11   12 1
    14   11   13 1
    15   13   14 1
    16   14   19 ar
    17   14   15 ar
    18   15   16 ar
    19   16   17 ar
    20   17   18 ar
    21   18   19 ar
    22   19   20 1
    23   20   21 1
    24    1   23 1
    25    1   24 1
    26    1   25 1
    27    3   26 1
    28    4   27 1
    29    5   28 1
    30    8   29 1
    31   11   30 1
    32   12   31 1
    33   12   32 1
    34   12   33 1
    35   15   34 1
    36   16   35 1
    37   17   36 1
    38   18   37 1
    39   21   38 1
    40   21   39 1
    41   21   40 1
    42   22   41 1
    43   22   42 1
    44   22   43 1
@<TRIPOS>MOLECULE
ZINC00311205
 32 33 0 0 0
SMALL
NO_CHARGES


@<TRIPOS>ATOM
      1 C           6.170    -9.825     1.055  C    
      2 C           6.723    -8.536     0.929  C    
      3 C           5.883    -7.430     0.696  C    
      4 C           4.487    -7.606     0.601  C    
      5 C           3.939    -8.902     0.716  C    
      6 C           4.779   -10.008     0.946  C    
      7 O           3.674    -6.538     0.341  O    
      8 C           3.176    -5.891     1.531  C    
      9 C           2.285    -4.821     1.143  C    
     10 O           1.263    -5.108     0.532  O    
     11 N           2.573    -3.564     1.455  N    
     12 C           1.771    -2.424     1.138  C    
     13 C           2.380    -1.189     1.695  C    
     14 C           2.497    -1.027     3.096  C    
     15 C           3.072     0.150     3.615  C    
     16 N           3.504     1.122     2.770  N    
     17 C           3.409     1.010     1.420  C    
     18 C           2.842    -0.148     0.852  C    
     19 H           6.780   -10.629     1.222  H    
     20 H           7.734    -8.404     1.001  H    
     21 H           6.291    -6.498     0.593  H    
     22 H           2.930    -9.040     0.631  H    
     23 H           4.379   -10.946     1.034  H    
     24 H           2.615    -6.597     2.153  H    
     25 H           4.010    -5.497     2.123  H    
     26 H           3.395    -3.405     1.945  H    
     27 H           1.668    -2.356     0.050  H    
     28 H           0.770    -2.543     1.566  H    
     29 H           2.168    -1.756     3.739  H    
     30 H           3.163     0.279     4.624  H    
     31 H           3.749     1.769     0.823  H    
     32 H           2.774    -0.223    -0.166  H    
@<TRIPOS>BOND
     1    1    6 ar
     2    1    2 ar
     3    2    3 ar
     4    3    4 ar
     5    4    5 ar
     6    4    7 1
     7    5    6 ar
     8    7    8 1
     9    8    9 1
    10    9   10 2
    11    9   11 1
    12   11   12 1
    13   12   13 1
    14   13   18 ar
    15   13   14 ar
    16   14   15 ar
    17   15   16 ar
    18   16   17 ar
    19   17   18 ar
    20    1   19 1
    21    2   20 1
    22    3   21 1
    23    5   22 1
    24    6   23 1
    25    8   24 1
    26    8   25 1
    27   11   26 1
    28   12   27 1
    29   12   28 1
    30   14   29 1
    31   15   30 1
    32   17   31 1
    33   18   32 1
@<TRIPOS>MOLECULE
ZINC00314064
 42 44 0 0 0
SMALL
NO_CHARGES


@<TRIPOS>ATOM
      1 C           2.070     0.386     1.842  C    
      2 C           2.405     1.044     3.128  C    
      3 C           3.085     2.263     3.288  C    
      4 C           3.305     2.404     4.656  C    
      5 C           3.950     3.420     5.390  C    
      6 C           4.018     3.316     6.796  C    
      7 C           3.408     2.220     7.449  C    
      8 C           2.760     1.214     6.705  C    
      9 C           2.713     1.311     5.297  C    
     10 N           2.171     0.501     4.355  N    
     11 C           1.478    -0.738     4.586  C    
     12 O           4.621     4.303     7.527  O    
     13 C           6.004     4.024     7.810  C    
     14 C           3.502     3.177     2.330  C    
     15 N           2.776     3.678     1.397  N    
     16 N           1.549     3.462     1.141  N    
     17 C           0.885     4.041     0.148  C    
     18 O           1.487     4.844    -0.560  O    
     19 C          -0.467     3.766    -0.107  C    
     20 C          -1.179     2.758     0.599  C    
     21 C          -2.531     2.503     0.305  C    
     22 N          -3.163     3.222    -0.655  N    
     23 C          -2.537     4.194    -1.360  C    
     24 C          -1.186     4.486    -1.103  C    
     25 H           2.517    -0.610     1.817  H    
     26 H           2.450     0.938     0.983  H    
     27 H           0.988     0.290     1.751  H    
     28 H           4.368     4.223     4.914  H    
     29 H           3.440     2.155     8.469  H    
     30 H           2.330     0.429     7.196  H    
     31 H           0.474    -0.682     4.157  H    
     32 H           1.372    -0.977     5.645  H    
     33 H           2.021    -1.559     4.112  H    
     34 H           6.117     3.098     8.385  H    
     35 H           6.402     4.847     8.406  H    
     36 H           6.593     3.955     6.888  H    
     37 H           4.402     3.579     2.438  H    
     38 H           1.074     2.845     1.718  H    
     39 H          -0.732     2.195     1.324  H    
     40 H          -3.042     1.776     0.806  H    
     41 H          -3.054     4.711    -2.074  H    
     42 H          -0.740     5.229    -1.647  H    
@<TRIPOS>BOND
     1    1    2 1
     2    2   10 1
     3    2    3 2
     4    3    4 1
     5    3   14 1
     6    4    9 ar
     7    4    5 ar
     8    5    6 ar
     9    6    7 ar
    10    6   12 1
    11    7    8 ar
    12    8    9 ar
    13    9   10 1
    14   10   11 1
    15   12   13 1
    16   14   15 2
    17   15   16 1
    18   16   17 1
    19   17   18 2
    20   17   19 1
    21   19   24 ar
    22   19   20 ar
    23   20   21 ar
    24   21   22 ar
    25   22   23 ar
    26   23   24 ar
    27    1   25 1
    28    1   26 1
    29    1   27 1
    30    5   28 1
    31    7   29 1
    32    8   30 1
    33   11   31 1
    34   11   32 1
    35   11   33 1
    36   13   34 1
    37   13   35 1
    38   13   36 1
    39   14   37 1
    40   16   38 1
    41   20   39 1
    42   21   40 1
    43   23   41 1
    44   24   42 1
@<TRIPOS>MOLECULE
ZINC00317268
 40 42 0 0 0
SMALL
NO_CHARGES


@<TRIPOS>ATOM
      1 C           4.107   -10.615    -0.514  C    
      2 C           5.250   -10.810     0.420  C    
      3 C           5.998   -12.010     0.363  C    
      4 C           7.075   -12.230     1.235  C    
      5 C           7.425   -11.250     2.175  C    
      6 C           6.693   -10.054     2.244  C    
      7 C           5.587    -9.823     1.389  C    
      8 N           4.865    -8.654     1.424  N    
      9 C           4.575    -7.872     2.459  C    
     10 O           4.887    -8.149     3.610  O    
     11 C           3.810    -6.770     2.252  C    
     12 C           4.346    -5.710     1.603  C    
     13 C           3.683    -4.490     1.523  C    
     14 C           4.168    -3.393     0.777  C    
     15 C           3.466    -2.170     0.768  C    
     16 C           2.262    -2.055     1.492  C    
     17 C           1.767    -3.143     2.235  C    
     18 C           2.471    -4.362     2.251  C    
     19 O           1.994    -5.422     3.003  O    
     20 C           2.531    -6.645     2.770  C    
     21 N           1.716    -7.610     3.021  N    
     22 O           1.845    -8.865     2.845  O    
     23 O           3.890    -1.100     0.025  O    
     24 C           5.036    -0.428     0.577  C    
     25 H           3.188   -10.470     0.057  H    
     26 H           3.957   -11.467    -1.179  H    
     27 H           4.283    -9.734    -1.133  H    
     28 H           5.766   -12.736    -0.321  H    
     29 H           7.608   -13.103     1.181  H    
     30 H           8.219   -11.403     2.800  H    
     31 H           6.991    -9.342     2.913  H    
     32 H           4.447    -8.399     0.588  H    
     33 H           5.254    -5.777     1.197  H    
     34 H           5.030    -3.479     0.235  H    
     35 H           1.745    -1.173     1.484  H    
     36 H           0.896    -3.048     2.766  H    
     37 H           2.510    -8.979     2.130  H    
     38 H           4.903    -0.177     1.636  H    
     39 H           5.176     0.500     0.019  H    
     40 H           5.937    -1.041     0.453  H    
@<TRIPOS>BOND
     1    1    2 1
     2    2    7 ar
     3    2    3 ar
     4    3    4 ar
     5    4    5 ar
     6    5    6 ar
     7    6    7 ar
     8    7    8 1
     9    8    9 1
    10    9   10 2
    11    9   11 1
    12   11   20 1
    13   11   12 2
    14   12   13 1
    15   13   18 ar
    16   13   14 ar
    17   14   15 ar
    18   15   16 ar
    19   15   23 1
    20   16   17 ar
    21   17   18 ar
    22   18   19 1
    23   19   20 1
    24   20   21 2
    25   21   22 1
    26   23   24 1
    27    1   25 1
    28    1   26 1
    29    1   27 1
    30    3   28 1
    31    4   29 1
    32    5   30 1
    33    6   31 1
    34    8   32 1
    35   12   33 1
    36   14   34 1
    37   16   35 1
    38   17   36 1
    39   22   37 1
    40   24   38 1
    41   24   39 1
    42   24   40 1
@<TRIPOS>MOLECULE
ZINC00323260
 52 53 0 0 0
SMALL
NO_CHARGES


@<TRIPOS>ATOM
      1 C           7.028   -12.421    -1.569  C    
      2 C           6.641   -11.255    -0.630  C    
      3 C           6.287    -9.919    -1.360  C    
      4 C           4.960    -9.964    -2.168  C    
      5 N           6.304    -8.792    -0.468  N    
      6 C           5.561    -8.573     0.608  C    
      7 O           4.724    -9.392     0.968  O    
      8 C           5.753    -7.343     1.367  C    
      9 C           5.317    -6.078     0.600  C    
     10 S           5.243    -4.759     1.822  S    
     11 C           4.973    -5.926     3.195  C    
     12 C           3.593    -5.667     3.875  C    
     13 C           3.586    -4.365     4.718  C    
     14 N           4.682    -4.374     5.691  N    
     15 C           6.007    -4.478     5.084  C    
     16 C           6.117    -5.786     4.250  C    
     17 C           4.451    -4.308     7.022  C    
     18 O           3.300    -4.415     7.426  O    
     19 C           5.473    -4.179     8.086  C    
     20 C           4.985    -3.384     9.335  C    
     21 C           6.006    -5.575     8.516  C    
     22 N           4.964    -7.288     2.611  N    
     23 H           6.176   -12.725    -2.184  H    
     24 H           7.343   -13.283    -0.973  H    
     25 H           7.855   -12.133    -2.222  H    
     26 H           5.802   -11.579    -0.010  H    
     27 H           7.494   -11.073     0.031  H    
     28 H           7.084    -9.720    -2.081  H    
     29 H           5.045   -10.670    -2.999  H    
     30 H           4.744    -8.975    -2.586  H    
     31 H           4.123   -10.267    -1.535  H    
     32 H           6.956    -8.105    -0.676  H    
     33 H           6.814    -7.270     1.633  H    
     34 H           6.028    -5.820    -0.190  H    
     35 H           4.317    -6.210     0.172  H    
     36 H           2.805    -5.618     3.115  H    
     37 H           3.362    -6.508     4.538  H    
     38 H           3.709    -3.504     4.052  H    
     39 H           2.590    -4.268     5.162  H    
     40 H           6.169    -3.613     4.431  H    
     41 H           6.834    -4.497     5.794  H    
     42 H           6.064    -6.635     4.937  H    
     43 H           7.093    -5.821     3.757  H    
     44 H           6.313    -3.594     7.710  H    
     45 H           4.588    -2.412     9.030  H    
     46 H           5.819    -3.213    10.022  H    
     47 H           4.203    -3.932     9.870  H    
     48 H           5.207    -6.174     8.960  H    
     49 H           6.805    -5.461     9.254  H    
     50 H           6.414    -6.120     7.661  H    
     51 H           3.996    -7.526     2.376  H    
     52 H           5.314    -7.967     3.289  H    
@<TRIPOS>BOND
     1    1    2 1
     2    2    3 1
     3    3    4 1
     4    3    5 1
     5    5    6 1
     6    6    7 2
     7    6    8 1
     8    8    9 1
     9    8   22 1
    10    9   10 1
    11   10   11 1
    12   11   16 1
    13   11   12 1
    14   11   22 1
    15   12   13 1
    16   13   14 1
    17   14   15 1
    18   14   17 1
    19   15   16 1
    20   17   18 2
    21   17   19 1
    22   19   20 1
    23   19   21 1
    24    1   23 1
    25    1   24 1
    26    1   25 1
    27    2   26 1
    28    2   27 1
    29    3   28 1
    30    4   29 1
    31    4   30 1
    32    4   31 1
    33    5   32 1
    34    8   33 1
    35    9   34 1
    36    9   35 1
    37   12   36 1
    38   12   37 1
    39   13   38 1
    40   13   39 1
    41   15   40 1
    42   15   41 1
    43   16   42 1
    44   16   43 1
    45   19   44 1
    46   20   45 1
    47   20   46 1
    48   20   47 1
    49   21   48 1
    50   21   49 1
    51   21   50 1
    52   22   51 1
    53   22   52 1
@<TRIPOS>MOLECULE
ZINC00327875
 45 46 0 0 0
SMALL
NO_CHARGES


@<TRIPOS>ATOM
      1 C           5.749   -10.171     1.523  C    
      2 C           5.540    -9.119     0.514  C    
      3 C           5.309    -7.745     0.703  C    
      4 C           5.171    -7.204    -0.575  C    
      5 C           5.291    -8.248    -1.487  C    
      6 O           5.509    -9.402    -0.814  O    
      7 C           5.289    -7.031     1.894  C    
      8 O           6.288    -7.212     2.587  O    
      9 N           4.330    -6.165     2.281  N    
     10 C           3.043    -6.051     1.611  C    
     11 C           2.840    -4.596     1.107  C    
     12 C           2.982    -3.586     2.274  C    
     13 C           4.322    -3.789     3.060  C    
     14 C           4.481    -5.300     3.448  C    
     15 C           4.475    -2.920     4.227  C    
     16 O           3.531    -2.251     4.637  O    
     17 N           5.654    -2.872     4.834  N    
     18 C           5.989    -2.139     6.019  C    
     19 C           6.390    -3.098     7.180  C    
     20 C           6.955    -2.300     8.389  C    
     21 C           5.204    -3.997     7.624  C    
     22 H           4.967   -10.926     1.426  H    
     23 H           5.723    -9.770     2.539  H    
     24 H           6.721   -10.638     1.354  H    
     25 H           5.021    -6.217    -0.812  H    
     26 H           5.237    -8.152    -2.503  H    
     27 H           2.913    -6.729     0.764  H    
     28 H           2.245    -6.301     2.321  H    
     29 H           3.584    -4.368     0.337  H    
     30 H           1.845    -4.502     0.661  H    
     31 H           2.943    -2.568     1.871  H    
     32 H           2.130    -3.714     2.952  H    
     33 H           5.133    -3.536     2.365  H    
     34 H           3.718    -5.566     4.190  H    
     35 H           5.450    -5.428     3.945  H    
     36 H           6.358    -3.423     4.458  H    
     37 H           6.836    -1.496     5.767  H    
     38 H           5.171    -1.488     6.349  H    
     39 H           7.191    -3.750     6.817  H    
     40 H           7.827    -1.714     8.085  H    
     41 H           7.270    -2.982     9.181  H    
     42 H           6.200    -1.620     8.791  H    
     43 H           4.370    -3.386     7.980  H    
     44 H           5.515    -4.669     8.428  H    
     45 H           4.857    -4.611     6.789  H    
@<TRIPOS>BOND
     1    1    2 1
     2    2    6 1
     3    2    3 2
     4    3    4 1
     5    3    7 1
     6    4    5 2
     7    5    6 1
     8    7    8 2
     9    7    9 1
    10    9   14 1
    11    9   10 1
    12   10   11 1
    13   11   12 1
    14   12   13 1
    15   13   14 1
    16   13   15 1
    17   15   16 2
    18   15   17 1
    19   17   18 1
    20   18   19 1
    21   19   20 1
    22   19   21 1
    23    1   22 1
    24    1   23 1
    25    1   24 1
    26    4   25 1
    27    5   26 1
    28   10   27 1
    29   10   28 1
    30   11   29 1
    31   11   30 1
    32   12   31 1
    33   12   32 1
    34   13   33 1
    35   14   34 1
    36   14   35 1
    37   17   36 1
    38   18   37 1
    39   18   38 1
    40   19   39 1
    41   20   40 1
    42   20   41 1
    43   20   42 1
    44   21   43 1
    45   21   44 1
    46   21   45 1
@<TRIPOS>MOLECULE
ZINC00355970
 36 37 0 0 0
SMALL
NO_CHARGES


@<TRIPOS>ATOM
      1 C          -4.563     5.905     7.962  C    
      2 C          -3.148     6.426     8.299  C    
      3 N          -2.195     6.138     7.265  N    
      4 C          -2.051     6.747     6.055  C    
      5 C          -0.987     6.115     5.404  C    
      6 C          -0.515     5.175     6.316  C    
      7 N          -1.284     5.220     7.414  N    
      8 C          -0.449     6.302     4.140  C    
      9 N          -1.108     6.463     3.049  N    
     10 N          -2.361     6.419     2.901  N    
     11 S          -3.090     6.904     1.469  S    
     12 O          -2.586     8.365     1.096  O    
     13 O          -2.739     5.871     0.314  O    
     14 C          -4.807     6.963     1.756  C    
     15 C          -5.640     5.898     1.355  C    
     16 C          -7.024     5.932     1.622  C    
     17 C          -7.586     7.030     2.303  C    
     18 C          -6.757     8.094     2.714  C    
     19 C          -5.375     8.058     2.446  C    
     20 Cl         -9.248     7.067     2.635  Cl   
     21 C          -2.801     7.936     5.588  C    
     22 H          -4.965     6.416     7.087  H    
     23 H          -5.238     6.089     8.802  H    
     24 H          -4.532     4.835     7.760  H    
     25 H          -3.185     7.502     8.486  H    
     26 H          -2.832     5.953     9.236  H    
     27 H           0.266     4.530     6.173  H    
     28 H           0.535     6.221     4.045  H    
     29 H          -2.925     6.120     3.633  H    
     30 H          -5.249     5.084     0.875  H    
     31 H          -7.613     5.152     1.326  H    
     32 H          -7.154     8.892     3.215  H    
     33 H          -4.786     8.831     2.768  H    
     34 H          -3.829     7.658     5.344  H    
     35 H          -2.335     8.379     4.708  H    
     36 H          -2.811     8.698     6.370  H    
@<TRIPOS>BOND
     1    1    2 1
     2    2    3 1
     3    3    7 1
     4    3    4 1
     5    4    5 2
     6    4   21 1
     7    5    6 1
     8    5    8 1
     9    6    7 2
    10    8    9 2
    11    9   10 1
    12   10   11 1
    13   11   12 2
    14   11   13 2
    15   11   14 1
    16   14   19 ar
    17   14   15 ar
    18   15   16 ar
    19   16   17 ar
    20   17   18 ar
    21   17   20 1
    22   18   19 ar
    23    1   22 1
    24    1   23 1
    25    1   24 1
    26    2   25 1
    27    2   26 1
    28    6   27 1
    29    8   28 1
    30   10   29 1
    31   15   30 1
    32   16   31 1
    33   18   32 1
    34   19   33 1
    35   21   34 1
    36   21   35 1
    37   21   36 1
@<TRIPOS>MOLECULE
ZINC00357425
 42 44 0 0 0
SMALL
NO_CHARGES


@<TRIPOS>ATOM
      1 C           7.058   -11.246    -1.634  C    
      2 C           5.613   -10.731    -1.500  C    
      3 O           5.589    -9.619    -0.597  O    
      4 C           4.495    -8.898    -0.224  C    
      5 O           3.288    -9.224    -0.755  O    
      6 C           4.620    -7.830     0.704  C    
      7 C           5.884    -7.455     1.220  C    
      8 C           6.003    -6.389     2.132  C    
      9 C           4.874    -5.659     2.562  C    
     10 C           3.608    -6.046     2.059  C    
     11 C           3.484    -7.110     1.146  C    
     12 N           5.120    -4.640     3.448  N    
     13 C           4.323    -3.721     3.974  C    
     14 O           3.145    -3.582     3.675  O    
     15 C           4.910    -2.730     4.845  C    
     16 C           5.659    -3.205     6.106  C    
     17 C           4.283    -2.521     6.247  C    
     18 C           4.190    -1.059     6.761  C    
     19 C           5.449    -0.587     7.533  C    
     20 C           6.753    -0.916     6.770  C    
     21 C           6.927    -2.446     6.575  C    
     22 H           7.697   -10.458    -2.036  H    
     23 H           7.087   -12.106    -2.310  H    
     24 H           7.438   -11.552    -0.656  H    
     25 H           5.240   -10.423    -2.482  H    
     26 H           4.978   -11.532    -1.116  H    
     27 H           6.732    -7.951     0.937  H    
     28 H           6.937    -6.149     2.481  H    
     29 H           2.758    -5.572     2.355  H    
     30 H           2.548    -7.356     0.813  H    
     31 H           6.049    -4.566     3.723  H    
     32 H           5.319    -1.839     4.360  H    
     33 H           5.633    -4.281     6.286  H    
     34 H           3.463    -3.198     6.496  H    
     35 H           4.007    -0.385     5.922  H    
     36 H           3.331    -0.977     7.430  H    
     37 H           5.389     0.492     7.696  H    
     38 H           5.475    -1.072     8.514  H    
     39 H           6.740    -0.420     5.795  H    
     40 H           7.610    -0.527     7.326  H    
     41 H           7.238    -2.878     7.528  H    
     42 H           7.731    -2.632     5.858  H    
@<TRIPOS>BOND
     1    1    2 1
     2    2    3 1
     3    3    4 1
     4    4    5 2
     5    4    6 1
     6    6   11 ar
     7    6    7 ar
     8    7    8 ar
     9    8    9 ar
    10    9   10 ar
    11    9   12 1
    12   10   11 ar
    13   12   13 1
    14   13   14 2
    15   13   15 1
    16   15   17 1
    17   15   16 1
    18   16   21 1
    19   16   17 1
    20   17   18 1
    21   18   19 1
    22   19   20 1
    23   20   21 1
    24    1   22 1
    25    1   23 1
    26    1   24 1
    27    2   25 1
    28    2   26 1
    29    7   27 1
    30    8   28 1
    31   10   29 1
    32   11   30 1
    33   12   31 1
    34   15   32 1
    35   16   33 1
    36   17   34 1
    37   18   35 1
    38   18   36 1
    39   19   37 1
    40   19   38 1
    41   20   39 1
    42   20   40 1
    43   21   41 1
    44   21   42 1
@<TRIPOS>MOLECULE
ZINC00380899
 45 47 0 0 0
SMALL
NO_CHARGES


@<TRIPOS>ATOM
      1 C           0.074    13.519    13.521  C    
      2 C           0.571    13.009    12.156  C    
      3 O          -0.561    12.637    11.346  O    
      4 C          -0.211    12.075    10.148  C    
      5 C           0.130    12.879     9.043  C    
      6 C           0.461    12.290     7.810  C    
      7 C           0.445    10.879     7.637  C    
      8 C           0.078    10.086     8.759  C    
      9 C          -0.251    10.675     9.994  C    
     10 C           0.777    10.297     6.405  C    
     11 O           1.389    10.954     5.572  O    
     12 N           0.406     9.060     6.101  N    
     13 C           0.680     8.321     4.898  C    
     14 C          -0.653     8.092     4.138  C    
     15 C           1.454     7.012     5.243  C    
     16 C           0.706     6.008     6.173  C    
     17 O           1.526     4.845     6.417  O    
     18 C           2.140     4.304     5.309  C    
     19 C           2.636     2.988     5.376  C    
     20 C           3.312     2.429     4.275  C    
     21 C           3.500     3.186     3.105  C    
     22 C           3.015     4.504     3.035  C    
     23 C           2.343     5.072     4.134  C    
     24 O           1.829     6.344     4.017  O    
     25 H          -0.638    14.338    13.387  H    
     26 H           0.916    13.883    14.114  H    
     27 H          -0.419    12.706    14.061  H    
     28 H           1.142    13.811    11.677  H    
     29 H           1.233    12.152    12.319  H    
     30 H           0.145    13.895     9.138  H    
     31 H           0.704    12.912     7.033  H    
     32 H           0.066     9.063     8.702  H    
     33 H          -0.513    10.081    10.785  H    
     34 H          -0.132     8.597     6.762  H    
     35 H           1.327     8.897     4.230  H    
     36 H          -1.387     7.591     4.770  H    
     37 H          -0.487     7.486     3.246  H    
     38 H          -1.071     9.051     3.825  H    
     39 H           2.381     7.303     5.751  H    
     40 H           0.480     6.473     7.133  H    
     41 H          -0.232     5.685     5.716  H    
     42 H           2.508     2.435     6.225  H    
     43 H           3.670     1.472     4.328  H    
     44 H           3.991     2.776     2.308  H    
     45 H           3.149     5.050     2.181  H    
@<TRIPOS>BOND
     1    1    2 1
     2    2    3 1
     3    3    4 1
     4    4    9 ar
     5    4    5 ar
     6    5    6 ar
     7    6    7 ar
     8    7    8 ar
     9    7   10 1
    10    8    9 ar
    11   10   11 2
    12   10   12 1
    13   12   13 1
    14   13   14 1
    15   13   15 1
    16   15   24 1
    17   15   16 1
    18   16   17 1
    19   17   18 1
    20   18   23 ar
    21   18   19 ar
    22   19   20 ar
    23   20   21 ar
    24   21   22 ar
    25   22   23 ar
    26   23   24 1
    27    1   25 1
    28    1   26 1
    29    1   27 1
    30    2   28 1
    31    2   29 1
    32    5   30 1
    33    6   31 1
    34    8   32 1
    35    9   33 1
    36   12   34 1
    37   13   35 1
    38   14   36 1
    39   14   37 1
    40   14   38 1
    41   15   39 1
    42   16   40 1
    43   16   41 1
    44   19   42 1
    45   20   43 1
    46   21   44 1
    47   22   45 1
@<TRIPOS>MOLECULE
ZINC00386553
 30 30 0 0 0
SMALL
NO_CHARGES


@<TRIPOS>ATOM
      1 C           6.151    -5.048     3.530  C    
      2 C           5.776    -4.664     2.072  C    
      3 C           4.242    -4.793     1.819  C    
      4 N           3.817    -4.423     0.478  N    
      5 C           3.313    -5.417    -0.333  C    
      6 C           4.111    -5.934    -1.383  C    
      7 C           3.614    -6.946    -2.224  C    
      8 C           2.314    -7.447    -2.031  C    
      9 C           1.508    -6.936    -0.993  C    
     10 C           2.001    -5.925    -0.145  C    
     11 O           1.178    -5.454     0.833  O    
     12 C           3.856    -3.152     0.039  C    
     13 O           4.235    -2.235     0.755  O    
     14 N           3.472    -2.780    -1.169  N    
     15 C           6.561    -5.474     1.110  C    
     16 O           7.408    -4.875     0.234  O    
     17 O           6.420    -6.815     1.049  O    
     18 H           5.610    -4.415     4.239  H    
     19 H           7.220    -4.907     3.697  H    
     20 H           5.902    -6.091     3.737  H    
     21 H           6.057    -3.616     1.944  H    
     22 H           3.954    -5.822     2.048  H    
     23 H           3.709    -4.166     2.536  H    
     24 H           5.059    -5.577    -1.535  H    
     25 H           4.198    -7.319    -2.976  H    
     26 H           1.951    -8.184    -2.642  H    
     27 H           0.559    -7.303    -0.858  H    
     28 H           1.706    -4.802     1.340  H    
     29 H           3.518    -1.845    -1.428  H    
     30 H           3.144    -3.436    -1.805  H    
@<TRIPOS>BOND
     1    1    2 1
     2    2    3 1
     3    2   15 1
     4    3    4 1
     5    4    5 1
     6    4   12 1
     7    5   10 ar
     8    5    6 ar
     9    6    7 ar
    10    7    8 ar
    11    8    9 ar
    12    9   10 ar
    13   10   11 1
    14   12   13 2
    15   12   14 1
    16   15   16 2
    17   15   17 1
    18    1   18 1
    19    1   19 1
    20    1   20 1
    21    2   21 1
    22    3   22 1
    23    3   23 1
    24    6   24 1
    25    7   25 1
    26    8   26 1
    27    9   27 1
    28   11   28 1
    29   14   29 1
    30   14   30 1
@<TRIPOS>MOLECULE
ZINC00398795
 24 24 0 0 0
SMALL
NO_CHARGES


@<TRIPOS>ATOM
      1 C           7.661    -3.313     0.995  C    
      2 C           7.923    -2.306     1.941  C    
      3 C           7.048    -2.118     3.028  C    
      4 C           5.912    -2.942     3.179  C    
      5 C           5.661    -3.972     2.242  C    
      6 C           6.531    -4.140     1.141  C    
      7 O           4.555    -4.774     2.349  O    
      8 C           4.797    -6.004     3.058  C    
      9 C           3.485    -6.823     3.131  C    
     10 C           3.672    -8.167     3.881  C    
     11 O           2.429    -8.858     3.993  O    
     12 O           3.002    -7.090     1.812  O    
     13 Cl          4.862    -2.672     4.479  Cl   
     14 H           8.292    -3.446     0.198  H    
     15 H           8.744    -1.705     1.833  H    
     16 H           7.240    -1.374     3.702  H    
     17 H           6.350    -4.873     0.452  H    
     18 H           5.564    -6.597     2.550  H    
     19 H           5.134    -5.790     4.076  H    
     20 H           2.731    -6.230     3.659  H    
     21 H           4.377    -8.806     3.336  H    
     22 H           4.065    -7.994     4.889  H    
     23 H           1.858    -8.272     4.538  H    
     24 H           2.843    -6.210     1.413  H    
@<TRIPOS>BOND
     1    1    6 ar
     2    1    2 ar
     3    2    3 ar
     4    3    4 ar
     5    4    5 ar
     6    4   13 1
     7    5    6 ar
     8    5    7 1
     9    7    8 1
    10    8    9 1
    11    9   10 1
    12    9   12 1
    13   10   11 1
    14    1   14 1
    15    2   15 1
    16    3   16 1
    17    6   17 1
    18    8   18 1
    19    8   19 1
    20    9   20 1
    21   10   21 1
    22   10   22 1
    23   11   23 1
    24   12   24 1
@<TRIPOS>MOLECULE
ZINC00400362
 33 34 0 0 0
SMALL
NO_CHARGES


@<TRIPOS>ATOM
      1 C           1.729    -3.702    -7.153  C    
      2 O           0.870    -3.691    -6.013  O    
      3 C           1.178    -4.121    -4.757  C    
      4 O           2.402    -4.653    -4.530  O    
      5 C           0.202    -4.080    -3.729  C    
      6 C          -1.172    -4.133    -4.085  C    
      7 C          -2.175    -4.195    -3.103  C    
      8 C          -1.825    -4.212    -1.744  C    
      9 C          -0.473    -4.152    -1.370  C    
     10 C           0.543    -4.059    -2.346  C    
     11 O           1.812    -3.938    -1.846  O    
     12 C           2.756    -2.999    -2.113  C    
     13 O           2.475    -1.965    -2.947  O    
     14 N           3.949    -3.158    -1.499  N    
     15 C           5.072    -2.377    -1.557  C    
     16 C           5.015    -0.973    -1.731  C    
     17 C           6.185    -0.197    -1.755  C    
     18 C           7.437    -0.812    -1.596  C    
     19 C           7.524    -2.204    -1.395  C    
     20 C           6.343    -2.988    -1.365  C    
     21 Cl          6.455    -4.671    -1.121  Cl   
     22 Cl          9.077    -2.867    -1.199  Cl   
     23 H           2.610    -3.085    -6.968  H    
     24 H           1.186    -3.296    -8.007  H    
     25 H           2.040    -4.723    -7.383  H    
     26 H          -1.461    -4.156    -5.068  H    
     27 H          -3.159    -4.245    -3.377  H    
     28 H          -2.555    -4.257    -1.028  H    
     29 H          -0.232    -4.144    -0.377  H    
     30 H           4.044    -3.986    -1.001  H    
     31 H           4.119    -0.491    -1.808  H    
     32 H           6.126     0.815    -1.879  H    
     33 H           8.280    -0.232    -1.616  H    
@<TRIPOS>BOND
     1    1    2 1
     2    2    3 1
     3    3    4 2
     4    3    5 1
     5    5   10 ar
     6    5    6 ar
     7    6    7 ar
     8    7    8 ar
     9    8    9 ar
    10    9   10 ar
    11   10   11 1
    12   11   12 1
    13   12   13 2
    14   12   14 1
    15   14   15 1
    16   15   20 ar
    17   15   16 ar
    18   16   17 ar
    19   17   18 ar
    20   18   19 ar
    21   19   20 ar
    22   19   22 1
    23   20   21 1
    24    1   23 1
    25    1   24 1
    26    1   25 1
    27    6   26 1
    28    7   27 1
    29    8   28 1
    30    9   29 1
    31   14   30 1
    32   16   31 1
    33   17   32 1
    34   18   33 1
@<TRIPOS>MOLECULE
ZINC00489582
 44 46 0 0 0
SMALL
NO_CHARGES


@<TRIPOS>ATOM
      1 C          -4.820     1.786     6.515  C    
      2 C          -3.953     2.502     5.559  C    
      3 C          -3.143     3.592     5.944  C    
      4 C          -2.347     4.213     4.961  C    
      5 N          -2.385     3.747     3.686  N    
      6 C          -3.166     2.696     3.314  C    
      7 N          -3.934     2.095     4.262  N    
      8 N          -3.224     2.208     2.054  N    
      9 C          -2.564     2.624     0.942  C    
     10 N          -2.836     1.925    -0.175  N    
     11 N          -1.691     3.661     0.906  N    
     12 C          -0.974     4.116    -0.243  C    
     13 C          -0.130     5.359     0.117  C    
     14 C           0.664     5.841    -1.033  C    
     15 C           0.409     6.982    -1.798  C    
     16 N           1.348     7.102    -2.754  N    
     17 C           2.216     6.085    -2.647  C    
     18 C           1.819     5.274    -1.577  C    
     19 C           2.572     4.136    -1.228  C    
     20 C           3.723     3.829    -1.981  C    
     21 C           4.115     4.647    -3.064  C    
     22 C           3.362     5.788    -3.406  C    
     23 C          -1.483     5.356     5.305  C    
     24 H          -5.856     1.854     6.179  H    
     25 H          -4.760     2.193     7.528  H    
     26 H          -4.526     0.736     6.549  H    
     27 H          -3.130     3.927     6.909  H    
     28 H          -3.823     1.452     1.926  H    
     29 H          -2.408     2.159    -1.017  H    
     30 H          -1.537     4.136     1.730  H    
     31 H          -0.331     3.309    -0.608  H    
     32 H          -1.682     4.382    -1.035  H    
     33 H          -0.808     6.146     0.454  H    
     34 H           0.545     5.131     0.945  H    
     35 H          -0.366     7.630    -1.663  H    
     36 H           1.399     7.814    -3.412  H    
     37 H           2.295     3.549    -0.441  H    
     38 H           4.283     3.008    -1.739  H    
     39 H           4.952     4.414    -3.603  H    
     40 H           3.640     6.390    -4.183  H    
     41 H          -2.095     6.170     5.697  H    
     42 H          -0.935     5.719     4.433  H    
     43 H          -0.763     5.051     6.067  H    
     44 H          -3.469     1.187    -0.143  H    
@<TRIPOS>BOND
     1    1    2 1
     2    2    7 ar
     3    2    3 ar
     4    3    4 ar
     5    4    5 ar
     6    4   23 1
     7    5    6 ar
     8    6    7 ar
     9    6    8 1
    10    8    9 1
    11    9   10 2
    12    9   11 1
    13   11   12 1
    14   12   13 1
    15   13   14 1
    16   14   18 1
    17   14   15 2
    18   15   16 1
    19   16   17 1
    20   17   22 ar
    21   17   18 ar
    22   18   19 ar
    23   19   20 ar
    24   20   21 ar
    25   21   22 ar
    26    1   24 1
    27    1   25 1
    28    1   26 1
    29    3   27 1
    30    8   28 1
    31   10   29 1
    32   11   30 1
    33   12   31 1
    34   12   32 1
    35   13   33 1
    36   13   34 1
    37   15   35 1
    38   16   36 1
    39   19   37 1
    40   20   38 1
    41   21   39 1
    42   22   40 1
    43   23   41 1
    44   23   42 1
    45   23   43 1
    46   10   44 1
@<TRIPOS>MOLECULE
ZINC00471965
 36 37 0 0 0
SMALL
NO_CHARGES


@<TRIPOS>ATOM
      1 C          -0.948    -8.182    -3.194  C    
      2 C          -0.053    -7.019    -3.383  C    
      3 C           0.070    -6.370    -4.633  C    
      4 C           0.929    -5.264    -4.769  C    
      5 C           1.669    -4.796    -3.667  C    
      6 C           1.571    -5.436    -2.406  C    
      7 C           0.701    -6.549    -2.286  C    
      8 C           2.327    -4.997    -1.290  C    
      9 O           2.299    -5.674    -0.114  O    
     10 O           3.127    -3.904    -1.384  O    
     11 N           3.884    -3.459    -0.413  N    
     12 C           4.732    -2.425    -0.581  C    
     13 C           4.796    -1.661    -1.765  C    
     14 C           3.633    -1.062    -2.296  C    
     15 C           3.705    -0.271    -3.456  C    
     16 C           4.933    -0.067    -4.133  C    
     17 C           6.087    -0.705    -3.606  C    
     18 C           6.026    -1.478    -2.435  C    
     19 N           4.999     0.714    -5.248  N    
     20 O           6.021     0.894    -5.857  O    
     21 O           3.955     1.337    -5.727  O    
     22 N           5.558    -2.137     0.439  N    
     23 H          -0.359    -9.049    -2.880  H    
     24 H          -1.487    -8.444    -4.109  H    
     25 H          -1.683    -7.955    -2.415  H    
     26 H          -0.461    -6.695    -5.447  H    
     27 H           1.016    -4.802    -5.676  H    
     28 H           2.283    -3.988    -3.804  H    
     29 H           0.608    -7.031    -1.386  H    
     30 H           3.899    -3.937     0.433  H    
     31 H           2.727    -1.179    -1.830  H    
     32 H           2.844     0.164    -3.794  H    
     33 H           6.994    -0.599    -4.068  H    
     34 H           6.882    -1.922    -2.087  H    
     35 H           6.194    -1.408     0.365  H    
     36 H           5.508    -2.651     1.259  H    
@<TRIPOS>BOND
     1    1    2 1
     2    2    7 ar
     3    2    3 ar
     4    3    4 ar
     5    4    5 ar
     6    5    6 ar
     7    6    7 ar
     8    6    8 1
     9    8    9 2
    10    8   10 1
    11   10   11 1
    12   11   12 1
    13   12   13 1
    14   12   22 2
    15   13   18 ar
    16   13   14 ar
    17   14   15 ar
    18   15   16 ar
    19   16   17 ar
    20   16   19 1
    21   17   18 ar
    22   19   20 2
    23   19   21 1
    24    1   23 1
    25    1   24 1
    26    1   25 1
    27    3   26 1
    28    4   27 1
    29    5   28 1
    30    7   29 1
    31   11   30 1
    32   14   31 1
    33   15   32 1
    34   17   33 1
    35   18   34 1
    36   22   35 1
    37   22   36 1
@<TRIPOS>MOLECULE
ZINC00414172
 46 48 0 0 0
SMALL
NO_CHARGES


@<TRIPOS>ATOM
      1 C           5.204    -9.562    -4.496  C    
      2 C           4.742    -8.766    -3.338  C    
      3 C           5.113    -7.413    -3.176  C    
      4 C           4.658    -6.675    -2.072  C    
      5 C           3.822    -7.268    -1.096  C    
      6 C           3.436    -8.632    -1.248  C    
      7 C           3.906    -9.360    -2.367  C    
      8 C           2.584    -9.316    -0.240  C    
      9 N           3.402    -6.497    -0.044  N    
     10 C           4.133    -5.792     0.833  C    
     11 N           3.242    -5.197     1.632  N    
     12 N           2.103    -5.543     1.224  N    
     13 N           2.192    -6.292     0.256  N    
     14 S           5.874    -5.693     0.940  S    
     15 C           6.071    -5.055     2.623  C    
     16 C           5.648    -5.975     3.699  C    
     17 O           5.245    -7.240     3.437  O    
     18 O           5.688    -5.514     4.977  O    
     19 C           5.297    -6.194     6.181  C    
     20 C           3.753    -6.388     6.240  C    
     21 C           3.288    -6.981     7.598  C    
     22 C           3.804    -6.145     8.798  C    
     23 C           5.343    -5.959     8.747  C    
     24 C           5.800    -5.357     7.390  C    
     25 H           5.766   -10.433    -4.147  H    
     26 H           5.848    -8.985    -5.163  H    
     27 H           4.340    -9.907    -5.072  H    
     28 H           5.712    -6.954    -3.867  H    
     29 H           4.927    -5.692    -1.988  H    
     30 H           3.642   -10.344    -2.480  H    
     31 H           3.041    -9.231     0.747  H    
     32 H           2.452   -10.378    -0.457  H    
     33 H           1.595    -8.858    -0.216  H    
     34 H           7.132    -4.830     2.765  H    
     35 H           5.515    -4.120     2.714  H    
     36 H           5.788    -7.173     6.207  H    
     37 H           3.262    -5.421     6.084  H    
     38 H           3.436    -7.059     5.438  H    
     39 H           2.195    -7.012     7.627  H    
     40 H           3.655    -8.007     7.690  H    
     41 H           3.320    -5.163     8.789  H    
     42 H           3.531    -6.644     9.734  H    
     43 H           5.657    -5.297     9.559  H    
     44 H           5.830    -6.928     8.896  H    
     45 H           6.894    -5.311     7.370  H    
     46 H           5.422    -4.334     7.305  H    
@<TRIPOS>BOND
     1    1    2 1
     2    2    7 ar
     3    2    3 ar
     4    3    4 ar
     5    4    5 ar
     6    5    6 ar
     7    5    9 1
     8    6    7 ar
     9    6    8 1
    10    9   13 1
    11    9   10 1
    12   10   11 2
    13   10   14 1
    14   11   12 1
    15   12   13 2
    16   14   15 1
    17   15   16 1
    18   16   17 2
    19   16   18 1
    20   18   19 1
    21   19   24 1
    22   19   20 1
    23   20   21 1
    24   21   22 1
    25   22   23 1
    26   23   24 1
    27    1   25 1
    28    1   26 1
    29    1   27 1
    30    3   28 1
    31    4   29 1
    32    7   30 1
    33    8   31 1
    34    8   32 1
    35    8   33 1
    36   15   34 1
    37   15   35 1
    38   19   36 1
    39   20   37 1
    40   20   38 1
    41   21   39 1
    42   21   40 1
    43   22   41 1
    44   22   42 1
    45   23   43 1
    46   23   44 1
    47   24   45 1
    48   24   46 1
@<TRIPOS>MOLECULE
ZINC00420113
 43 45 0 0 0
SMALL
NO_CHARGES


@<TRIPOS>ATOM
      1 C           2.130     8.227    11.472  C    
      2 C           1.203     9.128    10.744  C    
      3 C           0.290     9.939    11.457  C    
      4 C          -0.602    10.791    10.781  C    
      5 C          -0.596    10.851     9.377  C    
      6 C           0.305    10.054     8.638  C    
      7 C           1.207     9.194     9.325  C    
      8 N           2.069     8.441     8.566  N    
      9 C           2.074     8.476     7.237  C    
     10 O           2.919     7.792     6.684  O    
     11 C           1.189     9.275     6.537  C    
     12 C           0.338    10.061     7.240  C    
     13 C           1.117     9.235     5.065  C    
     14 N           0.498     8.067     4.536  N    
     15 C           1.107     7.326     3.489  C    
     16 C           2.234     6.502     3.960  C    
     17 C           2.151     5.380     4.781  C    
     18 C           3.442     4.911     4.957  C    
     19 C           4.279     5.755     4.238  C    
     20 O           3.535     6.714     3.637  O    
     21 C          -0.734     7.783     4.882  C    
     22 S          -2.010     8.494     3.993  S    
     23 N          -0.910     6.968     5.881  N    
     24 C          -2.119     6.541     6.413  C    
     25 H           1.955     7.196    11.163  H    
     26 H           1.999     8.282    12.555  H    
     27 H           3.161     8.498    11.243  H    
     28 H           0.262     9.913    12.481  H    
     29 H          -1.259    11.368    11.313  H    
     30 H          -1.254    11.474     8.901  H    
     31 H           2.711     7.869     9.017  H    
     32 H          -0.315    10.637     6.757  H    
     33 H           0.569    10.101     4.678  H    
     34 H           2.135     9.357     4.679  H    
     35 H           0.409     6.650     2.984  H    
     36 H           1.467     8.015     2.722  H    
     37 H           1.302     4.973     5.177  H    
     38 H           3.725     4.099     5.508  H    
     39 H           5.294     5.669     4.171  H    
     40 H          -0.136     6.637     6.289  H    
     41 H          -2.703     7.391     6.773  H    
     42 H          -1.919     5.876     7.256  H    
     43 H          -2.695     5.994     5.666  H    
@<TRIPOS>BOND
     1    1    2 1
     2    2    7 ar
     3    2    3 ar
     4    3    4 ar
     5    4    5 ar
     6    5    6 ar
     7    6   12 1
     8    6    7 ar
     9    7    8 1
    10    8    9 1
    11    9   10 2
    12    9   11 1
    13   11   12 2
    14   11   13 1
    15   13   14 1
    16   14   15 1
    17   14   21 1
    18   15   16 1
    19   16   20 1
    20   16   17 2
    21   17   18 1
    22   18   19 2
    23   19   20 1
    24   21   22 2
    25   21   23 1
    26   23   24 1
    27    1   25 1
    28    1   26 1
    29    1   27 1
    30    3   28 1
    31    4   29 1
    32    5   30 1
    33    8   31 1
    34   12   32 1
    35   13   33 1
    36   13   34 1
    37   15   35 1
    38   15   36 1
    39   17   37 1
    40   18   38 1
    41   19   39 1
    42   23   40 1
    43   24   41 1
    44   24   42 1
    45   24   43 1
@<TRIPOS>MOLECULE
ZINC00429894
 40 42 0 0 0
SMALL
NO_CHARGES


@<TRIPOS>ATOM
      1 C         -11.468     7.038     2.523  C    
      2 C         -10.308     6.920     3.527  C    
      3 O          -9.303     6.052     2.996  O    
      4 C          -8.156     5.659     3.612  C    
      5 O          -7.885     6.089     4.868  O    
      6 C          -7.294     4.746     2.960  C    
      7 C          -7.712     3.605     2.247  C    
      8 C          -6.554     3.010     1.754  C    
      9 C          -6.358     1.841     0.985  C    
     10 C          -5.046     1.455     0.650  C    
     11 C          -3.949     2.231     1.075  C    
     12 C          -4.156     3.396     1.840  C    
     13 C          -5.474     3.777     2.187  C    
     14 N          -5.931     4.823     2.917  N    
     15 C          -5.079     5.848     3.483  C    
     16 C          -4.228     5.347     4.598  C    
     17 C          -4.820     4.736     5.729  C    
     18 C          -4.030     4.278     6.802  C    
     19 C          -2.629     4.428     6.759  C    
     20 C          -2.027     5.036     5.642  C    
     21 C          -2.820     5.493     4.569  C    
     22 Cl         -1.680     3.879     8.045  Cl   
     23 C          -8.986     3.073     2.091  C    
     24 O          -9.922     3.409     2.794  O    
     25 H         -11.114     7.478     1.588  H    
     26 H         -12.252     7.674     2.937  H    
     27 H         -11.884     6.051     2.315  H    
     28 H          -9.889     7.910     3.714  H    
     29 H         -10.686     6.511     4.468  H    
     30 H          -7.151     1.275     0.671  H    
     31 H          -4.887     0.605     0.100  H    
     32 H          -2.997     1.940     0.836  H    
     33 H          -3.354     3.950     2.148  H    
     34 H          -4.464     6.262     2.677  H    
     35 H          -5.661     6.688     3.869  H    
     36 H          -5.834     4.619     5.782  H    
     37 H          -4.476     3.836     7.611  H    
     38 H          -1.008     5.148     5.607  H    
     39 H          -2.360     5.938     3.770  H    
     40 H          -9.142     2.309     1.473  H    
@<TRIPOS>BOND
     1    1    2 1
     2    2    3 1
     3    3    4 1
     4    4    5 2
     5    4    6 1
     6    6   14 1
     7    6    7 2
     8    7    8 1
     9    7   23 1
    10    8   13 ar
    11    8    9 ar
    12    9   10 ar
    13   10   11 ar
    14   11   12 ar
    15   12   13 ar
    16   13   14 1
    17   14   15 1
    18   15   16 1
    19   16   21 ar
    20   16   17 ar
    21   17   18 ar
    22   18   19 ar
    23   19   20 ar
    24   19   22 1
    25   20   21 ar
    26   23   24 2
    27    1   25 1
    28    1   26 1
    29    1   27 1
    30    2   28 1
    31    2   29 1
    32    9   30 1
    33   10   31 1
    34   11   32 1
    35   12   33 1
    36   15   34 1
    37   15   35 1
    38   17   36 1
    39   18   37 1
    40   20   38 1
    41   21   39 1
    42   23   40 1
@<TRIPOS>MOLECULE
ZINC00454317
 40 41 0 0 0
SMALL
NO_CHARGES


@<TRIPOS>ATOM
      1 C           8.398    -6.285     1.432  C    
      2 C           7.107    -5.500     1.833  C    
      3 C           6.978    -4.236     0.916  C    
      4 C           5.885    -6.303     1.672  C    
      5 O           5.907    -7.387     1.099  O    
      6 N           4.738    -5.823     2.142  N    
      7 C           3.433    -6.404     2.033  C    
      8 C           2.462    -5.416     1.340  C    
      9 C           2.831    -5.070    -0.120  C    
     10 C           1.475    -4.751    -0.766  C    
     11 C           0.444    -5.188     0.296  C    
     12 O           1.147    -5.980     1.257  O    
     13 O           7.189    -5.245     3.265  O    
     14 C           7.660    -4.050     3.742  C    
     15 C           9.038    -3.828     3.945  C    
     16 C           9.490    -2.600     4.467  C    
     17 C           8.565    -1.593     4.809  C    
     18 C           7.187    -1.818     4.625  C    
     19 C           6.737    -3.042     4.097  C    
     20 Cl          9.108    -0.118     5.443  Cl   
     21 H           8.356    -6.599     0.385  H    
     22 H           8.510    -7.176     2.055  H    
     23 H           9.288    -5.668     1.562  H    
     24 H           7.875    -3.616     0.986  H    
     25 H           6.122    -3.623     1.209  H    
     26 H           6.850    -4.525    -0.130  H    
     27 H           4.783    -4.969     2.600  H    
     28 H           3.437    -7.351     1.492  H    
     29 H           3.072    -6.601     3.045  H    
     30 H           2.415    -4.495     1.936  H    
     31 H           3.515    -4.217    -0.171  H    
     32 H           3.291    -5.928    -0.621  H    
     33 H           1.380    -3.681    -0.983  H    
     34 H           1.347    -5.316    -1.694  H    
     35 H           0.008    -4.316     0.793  H    
     36 H          -0.361    -5.776    -0.147  H    
     37 H           9.716    -4.558     3.719  H    
     38 H          10.491    -2.448     4.603  H    
     39 H           6.508    -1.098     4.877  H    
     40 H           5.735    -3.201     3.973  H    
@<TRIPOS>BOND
     1    1    2 1
     2    2    3 1
     3    2    4 1
     4    2   13 1
     5    4    5 2
     6    4    6 1
     7    6    7 1
     8    7    8 1
     9    8   12 1
    10    8    9 1
    11    9   10 1
    12   10   11 1
    13   11   12 1
    14   13   14 1
    15   14   19 ar
    16   14   15 ar
    17   15   16 ar
    18   16   17 ar
    19   17   18 ar
    20   17   20 1
    21   18   19 ar
    22    1   21 1
    23    1   22 1
    24    1   23 1
    25    3   24 1
    26    3   25 1
    27    3   26 1
    28    6   27 1
    29    7   28 1
    30    7   29 1
    31    8   30 1
    32    9   31 1
    33    9   32 1
    34   10   33 1
    35   10   34 1
    36   11   35 1
    37   11   36 1
    38   15   37 1
    39   16   38 1
    40   18   39 1
    41   19   40 1
@<TRIPOS>MOLECULE
ZINC00458243
 30 31 0 0 0
SMALL
NO_CHARGES


@<TRIPOS>ATOM
      1 C           6.391   -10.332    -1.753  C    
      2 C           5.469    -9.297    -1.821  C    
      3 C           4.973    -9.105    -0.533  C    
      4 O           5.565    -9.996     0.303  O    
      5 C           6.426   -10.747    -0.425  C    
      6 C           3.960    -8.126    -0.101  C    
      7 N           4.567    -7.165     0.765  N    
      8 C           3.937    -6.205     1.425  C    
      9 O           2.722    -6.071     1.338  O    
     10 C           4.717    -5.268     2.208  C    
     11 O           3.890    -4.526     3.128  O    
     12 C           4.459    -3.393     3.656  C    
     13 C           5.566    -3.463     4.535  C    
     14 C           6.106    -2.291     5.096  C    
     15 C           5.538    -1.038     4.798  C    
     16 C           4.420    -0.962     3.943  C    
     17 C           3.877    -2.133     3.374  C    
     18 Cl          2.519    -2.005     2.364  Cl   
     19 Br          6.240     0.511     5.550  Br   
     20 H           6.934   -10.713    -2.533  H    
     21 H           5.218    -8.776    -2.662  H    
     22 H           7.011   -11.495    -0.052  H    
     23 H           3.534    -7.615    -0.970  H    
     24 H           3.166    -8.662     0.423  H    
     25 H           5.530    -7.221     0.885  H    
     26 H           5.467    -5.821     2.779  H    
     27 H           5.227    -4.600     1.509  H    
     28 H           5.980    -4.367     4.777  H    
     29 H           6.910    -2.354     5.727  H    
     30 H           4.002    -0.054     3.737  H    
@<TRIPOS>BOND
     1    1    5 2
     2    1    2 1
     3    2    3 2
     4    3    4 1
     5    3    6 1
     6    4    5 1
     7    6    7 1
     8    7    8 1
     9    8    9 2
    10    8   10 1
    11   10   11 1
    12   11   12 1
    13   12   17 ar
    14   12   13 ar
    15   13   14 ar
    16   14   15 ar
    17   15   16 ar
    18   15   19 1
    19   16   17 ar
    20   17   18 1
    21    1   20 1
    22    2   21 1
    23    5   22 1
    24    6   23 1
    25    6   24 1
    26    7   25 1
    27   10   26 1
    28   10   27 1
    29   13   28 1
    30   14   29 1
    31   16   30 1
@<TRIPOS>MOLECULE
ZINC00466006
 45 46 0 0 0
SMALL
NO_CHARGES


@<TRIPOS>ATOM
      1 C           0.818    -5.073    -8.336  C    
      2 C           0.939    -3.748    -7.562  C    
      3 O           0.948    -4.017    -6.157  O    
      4 C           1.023    -3.101    -5.155  C    
      5 O           1.090    -1.779    -5.446  O    
      6 C           0.994    -3.591    -3.756  C    
      7 C           0.897    -2.458    -2.689  C    
      8 C           0.942    -3.028    -1.246  C    
      9 N           2.128    -3.851    -1.057  N    
     10 C           2.247    -4.967    -1.982  C    
     11 C           2.233    -4.483    -3.456  C    
     12 C           3.033    -3.581    -0.091  C    
     13 O           2.843    -2.687     0.726  O    
     14 C           4.220    -4.236     0.082  C    
     15 C           5.295    -4.009    -0.705  C    
     16 C           5.419    -3.054    -1.722  C    
     17 C           5.995    -3.433    -2.957  C    
     18 C           6.128    -2.509    -4.011  C    
     19 C           5.707    -1.177    -3.832  C    
     20 C           5.164    -0.771    -2.601  C    
     21 C           5.025    -1.699    -1.553  C    
     22 C           4.240    -5.279     1.105  C    
     23 H           1.677    -5.712    -8.118  H    
     24 H           0.784    -4.878    -9.410  H    
     25 H          -0.096    -5.596    -8.042  H    
     26 H           1.859    -3.237    -7.853  H    
     27 H           0.087    -3.107    -7.807  H    
     28 H           0.095    -4.209    -3.657  H    
     29 H           1.730    -1.758    -2.811  H    
     30 H          -0.036    -1.903    -2.825  H    
     31 H           0.886    -2.180    -0.556  H    
     32 H           0.051    -3.638    -1.067  H    
     33 H           3.149    -5.565    -1.835  H    
     34 H           1.404    -5.648    -1.825  H    
     35 H           2.233    -5.356    -4.116  H    
     36 H           3.150    -3.916    -3.648  H    
     37 H           6.060    -4.632    -0.618  H    
     38 H           6.303    -4.400    -3.111  H    
     39 H           6.535    -2.802    -4.900  H    
     40 H           5.802    -0.506    -4.597  H    
     41 H           4.879     0.202    -2.464  H    
     42 H           4.666    -1.368    -0.653  H    
     43 H           4.010    -4.851     2.081  H    
     44 H           5.209    -5.774     1.186  H    
     45 H           3.497    -6.046     0.877  H    
@<TRIPOS>BOND
     1    1    2 1
     2    2    3 1
     3    3    4 1
     4    4    5 2
     5    4    6 1
     6    6   11 1
     7    6    7 1
     8    7    8 1
     9    8    9 1
    10    9   10 1
    11    9   12 1
    12   10   11 1
    13   12   13 2
    14   12   14 1
    15   14   15 2
    16   14   22 1
    17   15   16 1
    18   16   21 ar
    19   16   17 ar
    20   17   18 ar
    21   18   19 ar
    22   19   20 ar
    23   20   21 ar
    24    1   23 1
    25    1   24 1
    26    1   25 1
    27    2   26 1
    28    2   27 1
    29    6   28 1
    30    7   29 1
    31    7   30 1
    32    8   31 1
    33    8   32 1
    34   10   33 1
    35   10   34 1
    36   11   35 1
    37   11   36 1
    38   15   37 1
    39   17   38 1
    40   18   39 1
    41   19   40 1
    42   20   41 1
    43   21   42 1
    44   22   43 1
    45   22   44 1
    46   22   45 1
@<TRIPOS>MOLECULE
ZINC00466925
 41 43 0 0 0
SMALL
NO_CHARGES


@<TRIPOS>ATOM
      1 C           1.624    -7.968    -6.029  C    
      2 C           2.560    -7.959    -5.006  C    
      3 C           2.753    -6.628    -4.628  C    
      4 O           1.951    -5.847    -5.401  O    
      5 C           1.266    -6.646    -6.254  C    
      6 C           3.598    -6.152    -3.645  C    
      7 O           4.333    -6.939    -3.062  O    
      8 N           3.626    -4.844    -3.413  N    
      9 C           4.359    -4.112    -2.517  C    
     10 C           4.487    -2.732    -2.794  C    
     11 C           5.209    -1.887    -1.933  C    
     12 C           5.802    -2.398    -0.762  C    
     13 C           5.673    -3.772    -0.472  C    
     14 C           4.952    -4.618    -1.335  C    
     15 S           6.702    -1.340     0.289  S    
     16 O           6.961    -1.988     1.716  O    
     17 O           5.838    -0.016     0.469  O    
     18 N           8.158    -0.943    -0.457  N    
     19 C           8.807     0.316    -0.301  C    
     20 C           9.354     0.572     1.119  C    
     21 C          10.486     1.605     0.939  C    
     22 C          10.892     1.559    -0.554  C    
     23 C          10.058     0.431    -1.193  C    
     24 H           1.268    -8.791    -6.519  H    
     25 H           3.018    -8.783    -4.606  H    
     26 H           0.594    -6.325    -6.949  H    
     27 H           3.065    -4.313    -4.007  H    
     28 H           4.059    -2.336    -3.634  H    
     29 H           5.299    -0.896    -2.169  H    
     30 H           6.098    -4.165     0.371  H    
     31 H           4.849    -5.599    -1.071  H    
     32 H           8.604    -1.630    -0.977  H    
     33 H           8.112     1.120    -0.573  H    
     34 H           8.570     0.951     1.781  H    
     35 H           9.759    -0.352     1.544  H    
     36 H          10.127     2.607     1.199  H    
     37 H          11.335     1.363     1.585  H    
     38 H          10.653     2.513    -1.035  H    
     39 H          11.963     1.367    -0.671  H    
     40 H          10.630    -0.504    -1.181  H    
     41 H           9.789     0.667    -2.226  H    
@<TRIPOS>BOND
     1    1    5 2
     2    1    2 1
     3    2    3 2
     4    3    4 1
     5    3    6 1
     6    4    5 1
     7    6    7 2
     8    6    8 1
     9    8    9 1
    10    9   14 ar
    11    9   10 ar
    12   10   11 ar
    13   11   12 ar
    14   12   13 ar
    15   12   15 1
    16   13   14 ar
    17   15   16 2
    18   15   17 2
    19   15   18 1
    20   18   19 1
    21   19   23 1
    22   19   20 1
    23   20   21 1
    24   21   22 1
    25   22   23 1
    26    1   24 1
    27    2   25 1
    28    5   26 1
    29    8   27 1
    30   10   28 1
    31   11   29 1
    32   13   30 1
    33   14   31 1
    34   18   32 1
    35   19   33 1
    36   20   34 1
    37   20   35 1
    38   21   36 1
    39   21   37 1
    40   22   38 1
    41   22   39 1
    42   23   40 1
    43   23   41 1
@<TRIPOS>MOLECULE
ZINC00475723
 35 36 0 0 0
SMALL
NO_CHARGES


@<TRIPOS>ATOM
      1 C           7.584   -11.542     1.094  C    
      2 C           6.198   -10.923     0.825  C    
      3 O           6.212    -9.531     1.168  O    
      4 C           5.173    -8.656     1.098  C    
      5 O           3.958    -9.086     0.676  O    
      6 C           5.341    -7.304     1.464  C    
      7 C           6.487    -6.617     1.918  C    
      8 N           6.299    -5.294     2.165  N    
      9 C           5.061    -4.806     1.947  C    
     10 S           4.092    -6.123     1.403  S    
     11 N           4.765    -3.503     2.152  N    
     12 C           3.600    -2.890     1.988  C    
     13 O           2.598    -3.482     1.602  O    
     14 C           3.519    -1.465     2.267  C    
     15 C           3.821    -1.108     3.739  C    
     16 C           3.102     0.233     3.943  C    
     17 C           2.133     0.321     2.747  C    
     18 O           2.208    -0.920     2.035  O    
     19 C           7.817    -7.219     2.127  C    
     20 H           8.346   -11.040     0.493  H    
     21 H           7.574   -12.601     0.836  H    
     22 H           7.841   -11.439     2.152  H    
     23 H           5.951   -11.036    -0.232  H    
     24 H           5.448   -11.445     1.424  H    
     25 H           5.497    -2.945     2.464  H    
     26 H           4.230    -0.946     1.611  H    
     27 H           3.395    -1.857     4.419  H    
     28 H           4.896    -1.021     3.923  H    
     29 H           2.561     0.250     4.895  H    
     30 H           3.812     1.064     3.924  H    
     31 H           1.106     0.475     3.083  H    
     32 H           2.409     1.145     2.084  H    
     33 H           7.754    -8.012     2.873  H    
     34 H           8.531    -6.470     2.479  H    
     35 H           8.192    -7.634     1.191  H    
@<TRIPOS>BOND
     1    1    2 1
     2    2    3 1
     3    3    4 1
     4    4    5 2
     5    4    6 1
     6    6   10 1
     7    6    7 2
     8    7    8 1
     9    7   19 1
    10    8    9 2
    11    9   10 1
    12    9   11 1
    13   11   12 1
    14   12   13 2
    15   12   14 1
    16   14   18 1
    17   14   15 1
    18   15   16 1
    19   16   17 1
    20   17   18 1
    21    1   20 1
    22    1   21 1
    23    1   22 1
    24    2   23 1
    25    2   24 1
    26   11   25 1
    27   14   26 1
    28   15   27 1
    29   15   28 1
    30   16   29 1
    31   16   30 1
    32   17   31 1
    33   17   32 1
    34   19   33 1
    35   19   34 1
    36   19   35 1
@<TRIPOS>MOLECULE
ZINC00476123
 40 42 0 0 0
SMALL
NO_CHARGES


@<TRIPOS>ATOM
      1 C           2.641    -2.618     0.035  C    
      2 C           1.521    -3.463    -0.026  C    
      3 C           1.657    -4.834     0.266  C    
      4 C           2.911    -5.385     0.626  C    
      5 C           4.032    -4.517     0.670  C    
      6 C           3.898    -3.144     0.379  C    
      7 C           3.044    -6.840     0.946  C    
      8 C           3.857    -7.526    -0.112  C    
      9 C           3.236    -7.955    -1.311  C    
     10 C           3.980    -8.579    -2.332  C    
     11 C           5.361    -8.779    -2.178  C    
     12 C           6.001    -8.352    -1.003  C    
     13 C           5.255    -7.728     0.019  C    
     14 N           3.542    -6.996     2.290  N    
     15 C           3.635    -8.130     2.985  C    
     16 O           3.258    -9.182     2.482  O    
     17 C           4.176    -8.101     4.240  C    
     18 C           4.126    -9.105     5.140  C    
     19 C           4.711    -9.075     6.405  C    
     20 C           4.657   -10.104     7.360  C    
     21 C           5.314    -9.840     8.576  C    
     22 C           5.934    -8.590     8.630  C    
     23 S           5.641    -7.810     7.126  S    
     24 H           2.543    -1.623    -0.173  H    
     25 H           0.608    -3.085    -0.283  H    
     26 H           0.823    -5.430     0.209  H    
     27 H           4.958    -4.879     0.923  H    
     28 H           4.715    -2.533     0.419  H    
     29 H           2.045    -7.290     0.956  H    
     30 H           2.230    -7.811    -1.451  H    
     31 H           3.514    -8.885    -3.190  H    
     32 H           5.901    -9.231    -2.918  H    
     33 H           7.007    -8.490    -0.889  H    
     34 H           5.750    -7.415     0.861  H    
     35 H           3.821    -6.181     2.744  H    
     36 H           4.644    -7.263     4.506  H    
     37 H           3.631    -9.936     4.895  H    
     38 H           4.172   -10.995     7.194  H    
     39 H           5.335   -10.512     9.351  H    
     40 H           6.464    -8.206     9.417  H    
@<TRIPOS>BOND
     1    1    6 ar
     2    1    2 ar
     3    2    3 ar
     4    3    4 ar
     5    4    5 ar
     6    4    7 1
     7    5    6 ar
     8    7    8 1
     9    7   14 1
    10    8   13 ar
    11    8    9 ar
    12    9   10 ar
    13   10   11 ar
    14   11   12 ar
    15   12   13 ar
    16   14   15 1
    17   15   16 2
    18   15   17 1
    19   17   18 2
    20   18   19 1
    21   19   23 1
    22   19   20 2
    23   20   21 1
    24   21   22 2
    25   22   23 1
    26    1   24 1
    27    2   25 1
    28    3   26 1
    29    5   27 1
    30    6   28 1
    31    7   29 1
    32    9   30 1
    33   10   31 1
    34   11   32 1
    35   12   33 1
    36   13   34 1
    37   14   35 1
    38   17   36 1
    39   18   37 1
    40   20   38 1
    41   21   39 1
    42   22   40 1
@<TRIPOS>MOLECULE
ZINC00478184
 44 46 0 0 0
SMALL
NO_CHARGES


@<TRIPOS>ATOM
      1 C           0.468    -3.775     1.111  C    
      2 C           1.415    -3.539     2.123  C    
      3 C           2.780    -3.791     1.883  C    
      4 C           3.220    -4.268     0.625  C    
      5 C           2.254    -4.488    -0.387  C    
      6 C           0.888    -4.251    -0.144  C    
      7 C           4.660    -4.536     0.389  C    
      8 N           5.091    -5.804     0.974  N    
      9 C           4.744    -7.026     0.244  C    
     10 C           3.976    -8.042     1.015  C    
     11 C           2.702    -7.737     1.554  C    
     12 C           1.982    -8.691     2.299  C    
     13 C           2.523    -9.971     2.512  C    
     14 C           3.776   -10.299     1.966  C    
     15 C           4.491    -9.347     1.217  C    
     16 C           5.861    -5.827     2.082  C    
     17 O           6.140    -4.802     2.694  O    
     18 C           6.380    -6.970     2.671  C    
     19 C           7.538    -7.566     2.125  C    
     20 C           8.085    -8.730     2.699  C    
     21 C           7.479    -9.310     3.829  C    
     22 C           6.335    -8.720     4.389  C    
     23 C           5.785    -7.552     3.822  C    
     24 N           4.680    -7.030     4.388  N    
     25 H          -0.526    -3.600     1.287  H    
     26 H           1.109    -3.184     3.032  H    
     27 H           3.449    -3.610     2.634  H    
     28 H           2.534    -4.839    -1.303  H    
     29 H           0.198    -4.427    -0.877  H    
     30 H           4.881    -4.553    -0.683  H    
     31 H           5.219    -3.670     0.758  H    
     32 H           4.141    -6.821    -0.646  H    
     33 H           5.675    -7.451    -0.139  H    
     34 H           2.283    -6.818     1.414  H    
     35 H           1.066    -8.455     2.688  H    
     36 H           2.004   -10.663     3.060  H    
     37 H           4.168   -11.231     2.118  H    
     38 H           5.399    -9.611     0.834  H    
     39 H           8.002    -7.164     1.308  H    
     40 H           8.926    -9.158     2.296  H    
     41 H           7.876   -10.157     4.240  H    
     42 H           5.905    -9.154     5.209  H    
     43 H           4.283    -7.451     5.169  H    
     44 H           4.269    -6.233     4.013  H    
@<TRIPOS>BOND
     1    1    6 ar
     2    1    2 ar
     3    2    3 ar
     4    3    4 ar
     5    4    5 ar
     6    4    7 1
     7    5    6 ar
     8    7    8 1
     9    8    9 1
    10    8   16 1
    11    9   10 1
    12   10   15 ar
    13   10   11 ar
    14   11   12 ar
    15   12   13 ar
    16   13   14 ar
    17   14   15 ar
    18   16   17 2
    19   16   18 1
    20   18   23 ar
    21   18   19 ar
    22   19   20 ar
    23   20   21 ar
    24   21   22 ar
    25   22   23 ar
    26   23   24 1
    27    1   25 1
    28    2   26 1
    29    3   27 1
    30    5   28 1
    31    6   29 1
    32    7   30 1
    33    7   31 1
    34    9   32 1
    35    9   33 1
    36   11   34 1
    37   12   35 1
    38   13   36 1
    39   14   37 1
    40   15   38 1
    41   19   39 1
    42   20   40 1
    43   21   41 1
    44   22   42 1
    45   24   43 1
    46   24   44 1
@<TRIPOS>MOLECULE
ZINC00481601
 33 33 0 0 0
SMALL
NO_CHARGES


@<TRIPOS>ATOM
      1 C           5.484    -8.015    -2.270  C    
      2 C           6.011    -7.210    -1.060  C    
      3 C           5.031    -7.096     0.009  C    
      4 O           4.594    -8.114     0.533  O    
      5 C           4.560    -5.878     0.473  C    
      6 C           5.397    -5.038     1.252  C    
      7 C           4.868    -3.855     1.810  C    
      8 C           3.546    -3.450     1.539  C    
      9 C           2.720    -4.270     0.741  C    
     10 C           3.216    -5.492     0.233  C    
     11 O           2.357    -6.275    -0.479  O    
     12 O           1.407    -3.925     0.558  O    
     13 C           1.150    -3.256    -0.689  C    
     14 O           3.020    -2.330     2.128  O    
     15 C           3.519    -1.086     1.605  C    
     16 O           6.666    -5.435     1.596  O    
     17 C           7.725    -4.668     0.995  C    
     18 H           5.252    -9.042    -1.977  H    
     19 H           6.245    -8.042    -3.052  H    
     20 H           4.583    -7.549    -2.677  H    
     21 H           6.906    -7.699    -0.667  H    
     22 H           6.304    -6.221    -1.423  H    
     23 H           5.447    -3.290     2.434  H    
     24 H           2.892    -6.998    -0.864  H    
     25 H           1.711    -2.324    -0.767  H    
     26 H           0.087    -3.017    -0.732  H    
     27 H           1.389    -3.894    -1.542  H    
     28 H           4.579    -0.956     1.836  H    
     29 H           2.967    -0.274     2.079  H    
     30 H           3.372    -1.014     0.524  H    
     31 H           7.674    -4.696    -0.094  H    
     32 H           8.675    -5.104     1.303  H    
     33 H           7.706    -3.629     1.331  H    
@<TRIPOS>BOND
     1    1    2 1
     2    2    3 1
     3    3    4 2
     4    3    5 1
     5    5   10 ar
     6    5    6 ar
     7    6    7 ar
     8    6   16 1
     9    7    8 ar
    10    8    9 ar
    11    8   14 1
    12    9   10 ar
    13    9   12 1
    14   10   11 1
    15   12   13 1
    16   14   15 1
    17   16   17 1
    18    1   18 1
    19    1   19 1
    20    1   20 1
    21    2   21 1
    22    2   22 1
    23    7   23 1
    24   11   24 1
    25   13   25 1
    26   13   26 1
    27   13   27 1
    28   15   28 1
    29   15   29 1
    30   15   30 1
    31   17   31 1
    32   17   32 1
    33   17   33 1
@<TRIPOS>MOLECULE
ZINC00531572
 36 38 0 0 0
SMALL
NO_CHARGES


@<TRIPOS>ATOM
      1 C           0.345    -1.600     0.931  C    
      2 C          -0.011    -0.647    -0.133  C    
      3 C          -0.337     0.640     0.155  C    
      4 C          -0.383     1.266     1.396  C    
      5 C          -0.732     2.602     1.608  C    
      6 C          -0.669     2.848     2.971  C    
      7 C          -0.280     1.657     3.567  C    
      8 O          -0.109     0.717     2.607  O    
      9 C          -0.038    -1.123    -1.426  C    
     10 N          -0.209    -0.375    -2.461  N    
     11 N          -0.319    -0.623    -3.710  N    
     12 C          -0.618    -1.759    -4.381  C    
     13 N          -0.526    -1.500    -5.697  N    
     14 N          -0.203    -0.258    -5.862  N    
     15 C          -0.088     0.312    -4.655  C    
     16 S           0.353     1.989    -4.511  S    
     17 C          -1.041    -3.017    -3.893  C    
     18 C          -0.366    -4.188    -4.303  C    
     19 C          -0.760    -5.449    -3.812  C    
     20 C          -1.841    -5.555    -2.922  C    
     21 C          -2.534    -4.399    -2.523  C    
     22 C          -2.143    -3.136    -3.010  C    
     23 F          -2.838    -2.092    -2.643  F    
     24 H           1.222    -1.237     1.474  H    
     25 H           0.593    -2.606     0.575  H    
     26 H          -0.493    -1.711     1.620  H    
     27 H          -0.575     1.235    -0.609  H    
     28 H          -0.998     3.285     0.896  H    
     29 H          -0.881     3.731     3.444  H    
     30 H          -0.152     1.510     4.570  H    
     31 H           0.126    -2.093    -1.594  H    
     32 H           0.150     2.086    -3.167  H    
     33 H           0.430    -4.134    -4.948  H    
     34 H          -0.258    -6.290    -4.105  H    
     35 H          -2.126    -6.473    -2.566  H    
     36 H          -3.332    -4.481    -1.887  H    
@<TRIPOS>BOND
     1    1    2 1
     2    2    3 2
     3    2    9 1
     4    3    4 1
     5    4    8 1
     6    4    5 2
     7    5    6 1
     8    6    7 2
     9    7    8 1
    10    9   10 2
    11   10   11 1
    12   11   15 1
    13   11   12 1
    14   12   13 2
    15   12   17 1
    16   13   14 1
    17   14   15 2
    18   15   16 1
    19   17   22 ar
    20   17   18 ar
    21   18   19 ar
    22   19   20 ar
    23   20   21 ar
    24   21   22 ar
    25   22   23 1
    26    1   24 1
    27    1   25 1
    28    1   26 1
    29    3   27 1
    30    5   28 1
    31    6   29 1
    32    7   30 1
    33    9   31 1
    34   16   32 1
    35   18   33 1
    36   19   34 1
    37   20   35 1
    38   21   36 1
@<TRIPOS>MOLECULE
ZINC00540596
 41 42 0 0 0
SMALL
NO_CHARGES


@<TRIPOS>ATOM
      1 C           4.935   -10.677    -1.678  C    
      2 C           3.976   -10.309    -0.522  C    
      3 N           4.671    -9.667     0.584  N    
      4 C           4.967   -10.488     1.744  C    
      5 C           5.950    -9.828     2.741  C    
      6 O           5.555    -8.462     2.909  O    
      7 C           5.605    -7.671     1.698  C    
      8 C           4.997    -8.360     0.551  C    
      9 O           4.860    -7.713    -0.482  O    
     10 C           4.913    -6.309     2.019  C    
     11 C           5.482    -5.519     3.098  C    
     12 O           6.467    -5.921     3.710  O    
     13 N           4.874    -4.383     3.420  N    
     14 C           5.168    -3.462     4.391  C    
     15 C           6.445    -3.266     4.968  C    
     16 C           6.638    -2.299     5.974  C    
     17 C           5.559    -1.509     6.407  C    
     18 C           4.282    -1.653     5.819  C    
     19 C           4.106    -2.628     4.813  C    
     20 O           3.159    -0.957     6.203  O    
     21 C           3.291     0.436     6.556  C    
     22 H           5.358    -9.778    -2.129  H    
     23 H           4.390   -11.228    -2.446  H    
     24 H           5.748   -11.304    -1.307  H    
     25 H           3.181    -9.657    -0.900  H    
     26 H           3.481   -11.231    -0.196  H    
     27 H           4.028   -10.707     2.262  H    
     28 H           5.409   -11.438     1.427  H    
     29 H           5.905   -10.336     3.707  H    
     30 H           6.976    -9.886     2.367  H    
     31 H           6.654    -7.475     1.449  H    
     32 H           4.932    -5.680     1.124  H    
     33 H           3.865    -6.508     2.263  H    
     34 H           4.057    -4.206     2.926  H    
     35 H           7.251    -3.805     4.659  H    
     36 H           7.564    -2.174     6.386  H    
     37 H           5.714    -0.837     7.157  H    
     38 H           3.177    -2.743     4.401  H    
     39 H           3.762     0.540     7.539  H    
     40 H           2.293     0.864     6.606  H    
     41 H           3.868     0.984     5.808  H    
@<TRIPOS>BOND
     1    1    2 1
     2    2    3 1
     3    3    8 1
     4    3    4 1
     5    4    5 1
     6    5    6 1
     7    6    7 1
     8    7    8 1
     9    7   10 1
    10    8    9 2
    11   10   11 1
    12   11   12 2
    13   11   13 1
    14   13   14 1
    15   14   19 ar
    16   14   15 ar
    17   15   16 ar
    18   16   17 ar
    19   17   18 ar
    20   18   19 ar
    21   18   20 1
    22   20   21 1
    23    1   22 1
    24    1   23 1
    25    1   24 1
    26    2   25 1
    27    2   26 1
    28    4   27 1
    29    4   28 1
    30    5   29 1
    31    5   30 1
    32    7   31 1
    33   10   32 1
    34   10   33 1
    35   13   34 1
    36   15   35 1
    37   16   36 1
    38   17   37 1
    39   19   38 1
    40   21   39 1
    41   21   40 1
    42   21   41 1
@<TRIPOS>MOLECULE
ZINC00548203
 38 39 0 0 0
SMALL
NO_CHARGES


@<TRIPOS>ATOM
      1 C           3.580   -12.280    -0.797  C    
      2 C           4.218   -11.435     0.342  C    
      3 C           5.547   -12.085     0.821  C    
      4 C           4.427   -10.027     0.004  C    
      5 O           4.342    -9.649    -1.161  O    
      6 N           4.693    -9.190     1.000  N    
      7 C           4.912    -7.840     1.038  C    
      8 C           5.048    -6.981    -0.078  C    
      9 C           5.284    -5.607     0.106  C    
     10 C           5.398    -5.071     1.402  C    
     11 C           5.271    -5.903     2.539  C    
     12 C           5.038    -7.281     2.332  C    
     13 N           5.385    -5.506     3.845  N    
     14 C           5.366    -4.303     4.412  C    
     15 O           5.201    -3.286     3.749  O    
     16 C           5.521    -4.190     5.798  C    
     17 C           6.403    -5.068     6.488  C    
     18 C           6.589    -4.978     7.879  C    
     19 C           5.885    -3.996     8.596  C    
     20 N           5.046    -3.157     7.936  N    
     21 C           4.850    -3.211     6.593  C    
     22 Cl          3.708    -2.100     6.001  Cl   
     23 H           4.247   -12.323    -1.662  H    
     24 H           2.629   -11.840    -1.106  H    
     25 H           3.387   -13.298    -0.452  H    
     26 H           3.511   -11.467     1.179  H    
     27 H           5.378   -13.125     1.117  H    
     28 H           5.953   -11.555     1.684  H    
     29 H           6.292   -12.070     0.019  H    
     30 H           4.710    -9.613     1.871  H    
     31 H           4.987    -7.333    -1.033  H    
     32 H           5.388    -4.998    -0.709  H    
     33 H           5.605    -4.076     1.490  H    
     34 H           4.943    -7.894     3.148  H    
     35 H           5.457    -6.241     4.477  H    
     36 H           6.932    -5.782     5.978  H    
     37 H           7.227    -5.618     8.363  H    
     38 H           6.002    -3.914     9.607  H    
@<TRIPOS>BOND
     1    1    2 1
     2    2    3 1
     3    2    4 1
     4    4    5 2
     5    4    6 1
     6    6    7 1
     7    7   12 ar
     8    7    8 ar
     9    8    9 ar
    10    9   10 ar
    11   10   11 ar
    12   11   12 ar
    13   11   13 1
    14   13   14 1
    15   14   15 2
    16   14   16 1
    17   16   21 ar
    18   16   17 ar
    19   17   18 ar
    20   18   19 ar
    21   19   20 ar
    22   20   21 ar
    23   21   22 1
    24    1   23 1
    25    1   24 1
    26    1   25 1
    27    2   26 1
    28    3   27 1
    29    3   28 1
    30    3   29 1
    31    6   30 1
    32    8   31 1
    33    9   32 1
    34   10   33 1
    35   12   34 1
    36   13   35 1
    37   17   36 1
    38   18   37 1
    39   19   38 1
@<TRIPOS>MOLECULE
ZINC00558378
 45 47 0 0 0
SMALL
NO_CHARGES


@<TRIPOS>ATOM
      1 C           5.528   -10.868    -2.584  C    
      2 C           5.573    -9.856    -1.409  C    
      3 C           6.374    -8.573    -1.787  C    
      4 C           6.329    -7.531    -0.640  C    
      5 N           4.961    -7.234    -0.256  N    
      6 C           4.178    -8.384     0.175  C    
      7 C           4.143    -9.478    -0.926  C    
      8 C           4.416    -5.972    -0.365  C    
      9 C           4.677    -5.204    -1.531  C    
     10 C           4.070    -3.954    -1.739  C    
     11 C           3.189    -3.439    -0.779  C    
     12 C           2.944    -4.157     0.400  C    
     13 C           3.552    -5.417     0.633  C    
     14 N           3.469    -6.053     1.834  N    
     15 C           2.708    -5.870     2.911  C    
     16 S           1.041    -5.522     2.756  S    
     17 N           3.274    -6.330     4.032  N    
     18 C           2.836    -6.377     5.283  C    
     19 O           1.734    -5.965     5.619  O    
     20 C           3.674    -6.891     6.252  C    
     21 C           3.412    -7.024     7.617  C    
     22 C           4.543    -7.566     8.205  C    
     23 C           5.468    -7.754     7.190  C    
     24 O           4.933    -7.344     6.016  O    
     25 H           4.984   -11.766    -2.286  H    
     26 H           6.540   -11.162    -2.871  H    
     27 H           5.033   -10.432    -3.452  H    
     28 H           6.094   -10.350    -0.577  H    
     29 H           7.414    -8.838    -1.994  H    
     30 H           5.948    -8.129    -2.692  H    
     31 H           6.857    -7.940     0.226  H    
     32 H           6.891    -6.645    -0.939  H    
     33 H           4.610    -8.800     1.092  H    
     34 H           3.134    -8.133     0.392  H    
     35 H           3.559    -9.107    -1.771  H    
     36 H           3.641   -10.367    -0.532  H    
     37 H           5.265    -5.575    -2.279  H    
     38 H           4.261    -3.426    -2.594  H    
     39 H           2.752    -2.526    -0.925  H    
     40 H           2.364    -3.712     1.110  H    
     41 H           4.126    -6.754     1.946  H    
     42 H           4.176    -6.669     3.909  H    
     43 H           2.551    -6.764     8.102  H    
     44 H           4.673    -7.780     9.195  H    
     45 H           6.408    -8.132     7.310  H    
@<TRIPOS>BOND
     1    1    2 1
     2    2    7 1
     3    2    3 1
     4    3    4 1
     5    4    5 1
     6    5    6 1
     7    5    8 1
     8    6    7 1
     9    8   13 ar
    10    8    9 ar
    11    9   10 ar
    12   10   11 ar
    13   11   12 ar
    14   12   13 ar
    15   13   14 1
    16   14   15 1
    17   15   16 2
    18   15   17 1
    19   17   18 1
    20   18   19 2
    21   18   20 1
    22   20   24 1
    23   20   21 2
    24   21   22 1
    25   22   23 2
    26   23   24 1
    27    1   25 1
    28    1   26 1
    29    1   27 1
    30    2   28 1
    31    3   29 1
    32    3   30 1
    33    4   31 1
    34    4   32 1
    35    6   33 1
    36    6   34 1
    37    7   35 1
    38    7   36 1
    39    9   37 1
    40   10   38 1
    41   11   39 1
    42   12   40 1
    43   14   41 1
    44   17   42 1
    45   21   43 1
    46   22   44 1
    47   23   45 1
@<TRIPOS>MOLECULE
ZINC00572928
 45 48 0 0 0
SMALL
NO_CHARGES


@<TRIPOS>ATOM
      1 C          -0.966     8.943     9.479  C    
      2 C           0.368     8.495     9.459  C    
      3 C           0.842     7.736     8.376  C    
      4 C          -0.026     7.421     7.308  C    
      5 C          -1.375     7.875     7.313  C    
      6 C          -1.835     8.636     8.414  C    
      7 C          -2.174     7.535     6.192  C    
      8 N          -1.623     6.790     5.198  N    
      9 C          -0.341     6.350     5.206  C    
     10 N           0.433     6.683     6.268  N    
     11 N           0.233     5.596     4.243  N    
     12 C          -0.256     5.067     3.079  C    
     13 C          -1.552     5.264     2.535  C    
     14 C          -1.929     4.643     1.329  C    
     15 C          -1.019     3.819     0.638  C    
     16 C           0.269     3.619     1.164  C    
     17 C           0.644     4.240     2.367  C    
     18 O          -1.364     3.208    -0.519  O    
     19 N          -3.461     7.945     6.079  N    
     20 C          -4.305     7.717     4.950  C    
     21 C          -5.717     8.315     5.159  C    
     22 C          -5.747     9.843     5.374  C    
     23 C          -7.157    10.233     4.913  C    
     24 C          -7.630     9.009     4.100  C    
     25 O          -6.519     8.112     3.988  O    
     26 H          -1.305     9.485    10.276  H    
     27 H           0.991     8.714    10.238  H    
     28 H           1.813     7.415     8.366  H    
     29 H          -2.801     8.970     8.460  H    
     30 H           1.160     5.373     4.420  H    
     31 H          -2.238     5.856     2.998  H    
     32 H          -2.869     4.792     0.952  H    
     33 H           0.935     3.022     0.670  H    
     34 H           1.588     4.075     2.726  H    
     35 H          -2.288     3.472    -0.700  H    
     36 H          -3.836     8.469     6.809  H    
     37 H          -3.851     8.165     4.061  H    
     38 H          -4.403     6.640     4.785  H    
     39 H          -6.187     7.812     6.015  H    
     40 H          -5.568    10.106     6.423  H    
     41 H          -4.996    10.337     4.745  H    
     42 H          -7.813    10.399     5.773  H    
     43 H          -7.132    11.140     4.302  H    
     44 H          -8.456     8.503     4.612  H    
     45 H          -7.964     9.304     3.103  H    
@<TRIPOS>BOND
     1    1    6 ar
     2    1    2 ar
     3    2    3 ar
     4    3    4 ar
     5    4   10 ar
     6    4    5 ar
     7    5    6 ar
     8    5    7 ar
     9    7    8 ar
    10    7   19 1
    11    8    9 ar
    12    9   10 ar
    13    9   11 1
    14   11   12 1
    15   12   17 ar
    16   12   13 ar
    17   13   14 ar
    18   14   15 ar
    19   15   16 ar
    20   15   18 1
    21   16   17 ar
    22   19   20 1
    23   20   21 1
    24   21   25 1
    25   21   22 1
    26   22   23 1
    27   23   24 1
    28   24   25 1
    29    1   26 1
    30    2   27 1
    31    3   28 1
    32    6   29 1
    33   11   30 1
    34   13   31 1
    35   14   32 1
    36   16   33 1
    37   17   34 1
    38   18   35 1
    39   19   36 1
    40   20   37 1
    41   20   38 1
    42   21   39 1
    43   22   40 1
    44   22   41 1
    45   23   42 1
    46   23   43 1
    47   24   44 1
    48   24   45 1
@<TRIPOS>MOLECULE
ZINC00612601
 41 43 0 0 0
SMALL
NO_CHARGES


@<TRIPOS>ATOM
      1 C           3.361   -12.315    -0.239  C    
      2 C           2.638   -11.541    -1.164  C    
      3 C           2.857   -10.153    -1.246  C    
      4 C           3.799    -9.502    -0.405  C    
      5 C           4.520   -10.310     0.517  C    
      6 C           4.303   -11.698     0.600  C    
      7 C           4.018    -8.120    -0.497  C    
      8 O           3.676    -7.532    -1.513  O    
      9 N           4.524    -7.447     0.534  N    
     10 C           4.835    -6.155     0.679  C    
     11 S           5.065    -5.082    -0.632  S    
     12 N           5.047    -5.793     1.909  N    
     13 C           5.294    -4.508     2.395  C    
     14 C           5.310    -4.474     3.951  C    
     15 C           4.011    -4.901     4.568  C    
     16 C           2.794    -4.261     4.226  C    
     17 C           1.573    -4.697     4.769  C    
     18 C           1.552    -5.762     5.685  C    
     19 C           2.755    -6.369     6.082  C    
     20 C           3.992    -5.929     5.554  C    
     21 C           5.253    -6.548     6.039  C    
     22 C           6.485    -5.672     5.722  C    
     23 O           6.447    -5.283     4.341  O    
     24 H           3.203   -13.322    -0.178  H    
     25 H           1.950   -11.989    -1.772  H    
     26 H           2.304    -9.621    -1.923  H    
     27 H           5.225    -9.900     1.131  H    
     28 H           4.833   -12.260     1.270  H    
     29 H           4.655    -7.974     1.337  H    
     30 H           4.975    -6.465     2.557  H    
     31 H           6.260    -4.161     2.020  H    
     32 H           4.531    -3.821     2.022  H    
     33 H           5.511    -3.446     4.263  H    
     34 H           2.786    -3.480     3.570  H    
     35 H           0.700    -4.237     4.501  H    
     36 H           0.663    -6.078     6.080  H    
     37 H           2.726    -7.122     6.774  H    
     38 H           5.213    -6.697     7.122  H    
     39 H           5.368    -7.526     5.565  H    
     40 H           6.502    -4.785     6.360  H    
     41 H           7.399    -6.243     5.905  H    
@<TRIPOS>BOND
     1    1    6 ar
     2    1    2 ar
     3    2    3 ar
     4    3    4 ar
     5    4    5 ar
     6    4    7 1
     7    5    6 ar
     8    7    8 2
     9    7    9 1
    10    9   10 1
    11   10   11 2
    12   10   12 1
    13   12   13 1
    14   13   14 1
    15   14   23 1
    16   14   15 1
    17   15   20 ar
    18   15   16 ar
    19   16   17 ar
    20   17   18 ar
    21   18   19 ar
    22   19   20 ar
    23   20   21 1
    24   21   22 1
    25   22   23 1
    26    1   24 1
    27    2   25 1
    28    3   26 1
    29    5   27 1
    30    6   28 1
    31    9   29 1
    32   12   30 1
    33   13   31 1
    34   13   32 1
    35   14   33 1
    36   16   34 1
    37   17   35 1
    38   18   36 1
    39   19   37 1
    40   21   38 1
    41   21   39 1
    42   22   40 1
    43   22   41 1
@<TRIPOS>MOLECULE
ZINC00615829
 31 31 0 0 0
SMALL
NO_CHARGES


@<TRIPOS>ATOM
      1 C           3.077    -5.082     3.492  C    
      2 C           4.017    -4.797     2.582  C    
      3 C           4.408    -5.689     1.493  C    
      4 C           4.149    -5.152     0.026  C    
      5 C           4.436    -6.335    -0.980  C    
      6 C           4.314    -6.000    -2.396  C    
      7 C           3.377    -6.504    -3.213  C    
      8 C           2.701    -4.724    -0.193  C    
      9 C           1.620    -5.516     0.287  C    
     10 C           0.278    -5.156     0.061  C    
     11 C          -0.026    -4.018    -0.702  C    
     12 C           1.015    -3.242    -1.236  C    
     13 C           2.354    -3.599    -0.994  C    
     14 C           5.146    -4.042    -0.194  C    
     15 O           6.435    -4.319    -0.502  O    
     16 O           4.945    -2.816     0.343  O    
     17 H           2.866    -4.430     4.209  H    
     18 H           2.573    -5.939     3.467  H    
     19 H           4.491    -3.928     2.667  H    
     20 H           5.478    -5.894     1.623  H    
     21 H           3.918    -6.656     1.620  H    
     22 H           5.451    -6.711    -0.829  H    
     23 H           3.770    -7.173    -0.742  H    
     24 H           4.964    -5.352    -2.782  H    
     25 H           3.351    -6.234    -4.170  H    
     26 H           2.683    -7.136    -2.878  H    
     27 H           1.795    -6.375     0.812  H    
     28 H          -0.479    -5.735     0.437  H    
     29 H          -1.001    -3.765    -0.881  H    
     30 H           0.797    -2.429    -1.816  H    
     31 H           3.075    -3.027    -1.437  H    
@<TRIPOS>BOND
     1    1    2 2
     2    2    3 1
     3    3    4 1
     4    4    5 1
     5    4    8 1
     6    4   14 1
     7    5    6 1
     8    6    7 2
     9    8   13 ar
    10    8    9 ar
    11    9   10 ar
    12   10   11 ar
    13   11   12 ar
    14   12   13 ar
    15   14   15 2
    16   14   16 1
    17    1   17 1
    18    1   18 1
    19    2   19 1
    20    3   20 1
    21    3   21 1
    22    5   22 1
    23    5   23 1
    24    6   24 1
    25    7   25 1
    26    7   26 1
    27    9   27 1
    28   10   28 1
    29   11   29 1
    30   12   30 1
    31   13   31 1
@<TRIPOS>MOLECULE
ZINC00628039
 42 44 0 0 0
SMALL
NO_CHARGES


@<TRIPOS>ATOM
      1 C          -3.299     0.534     0.876  C    
      2 C          -2.378     1.359    -0.057  C    
      3 C          -0.882     1.034     0.155  C    
      4 S           0.154     1.911    -1.050  S    
      5 C           1.718     1.206    -0.718  C    
      6 N           2.018     0.581     0.434  N    
      7 C           3.298     0.201     0.367  C    
      8 C           3.810     0.615    -0.860  C    
      9 N           2.808     1.228    -1.531  N    
     10 C           2.887     1.808    -2.849  C    
     11 C           3.130     0.799    -3.923  C    
     12 C           2.295    -0.349    -3.976  C    
     13 C           2.478    -1.336    -4.963  C    
     14 C           3.483    -1.181    -5.935  C    
     15 C           4.300    -0.035    -5.922  C    
     16 C           4.132     0.955    -4.929  C    
     17 Cl          5.155     2.312    -5.038  Cl   
     18 C           5.148     0.332    -1.110  C    
     19 O           5.705     0.684    -2.136  O    
     20 N           5.862    -0.331    -0.198  N    
     21 C           5.350    -0.734     0.967  C    
     22 O           6.114    -1.332     1.715  O    
     23 N           4.065    -0.478     1.293  N    
     24 C           3.457    -0.867     2.542  C    
     25 O          -2.615     2.750     0.163  O    
     26 H          -3.156    -0.534     0.703  H    
     27 H          -4.345     0.776     0.680  H    
     28 H          -3.080     0.754     1.923  H    
     29 H          -2.649     1.133    -1.092  H    
     30 H          -0.581     1.319     1.166  H    
     31 H          -0.730    -0.040     0.029  H    
     32 H           1.956     2.316    -3.109  H    
     33 H           3.663     2.574    -2.819  H    
     34 H           1.545    -0.478    -3.292  H    
     35 H           1.879    -2.164    -4.982  H    
     36 H           3.616    -1.897    -6.657  H    
     37 H           5.014     0.073    -6.646  H    
     38 H           6.796    -0.524    -0.386  H    
     39 H           3.112     0.022     3.075  H    
     40 H           4.138    -1.406     3.201  H    
     41 H           2.599    -1.515     2.350  H    
     42 H          -3.567     2.885    -0.039  H    
@<TRIPOS>BOND
     1    1    2 1
     2    2    3 1
     3    2   25 1
     4    3    4 1
     5    4    5 1
     6    5    9 1
     7    5    6 2
     8    6    7 1
     9    7   23 1
    10    7    8 2
    11    8    9 1
    12    8   18 1
    13    9   10 1
    14   10   11 1
    15   11   16 ar
    16   11   12 ar
    17   12   13 ar
    18   13   14 ar
    19   14   15 ar
    20   15   16 ar
    21   16   17 1
    22   18   19 2
    23   18   20 1
    24   20   21 1
    25   21   22 2
    26   21   23 1
    27   23   24 1
    28    1   26 1
    29    1   27 1
    30    1   28 1
    31    2   29 1
    32    3   30 1
    33    3   31 1
    34   10   32 1
    35   10   33 1
    36   12   34 1
    37   13   35 1
    38   14   36 1
    39   15   37 1
    40   20   38 1
    41   24   39 1
    42   24   40 1
    43   24   41 1
    44   25   42 1
@<TRIPOS>MOLECULE
ZINC00636890
 41 43 0 0 0
SMALL
NO_CHARGES


@<TRIPOS>ATOM
      1 C          -0.833     5.802     5.016  C    
      2 C          -0.157     5.289     3.811  C    
      3 C           1.156     4.846     3.603  C    
      4 C           1.218     4.576     2.230  C    
      5 N           0.018     4.848     1.690  N    
      6 O          -0.792     5.271     2.618  O    
      7 C           2.301     4.074     1.465  C    
      8 C           2.835     4.891     0.440  C    
      9 C           3.918     4.445    -0.342  C    
     10 C           4.478     3.176    -0.109  C    
     11 C           3.942     2.346     0.893  C    
     12 C           2.859     2.784     1.685  C    
     13 Cl          2.229     1.692     2.830  Cl   
     14 C           2.191     4.729     4.522  C    
     15 O           3.333     4.935     4.125  O    
     16 N           1.930     4.357     5.771  N    
     17 C           2.739     4.158     6.863  C    
     18 C           4.144     4.334     6.913  C    
     19 C           4.864     4.088     8.096  C    
     20 C           4.212     3.654     9.275  C    
     21 C           2.808     3.486     9.225  C    
     22 C           2.090     3.732     8.041  C    
     23 C           4.944     3.387    10.466  C    
     24 O           4.310     2.955    11.584  O    
     25 O           6.297     3.540    10.503  O    
     26 C           7.149     3.300    11.625  C    
     27 H          -1.263     6.780     4.797  H    
     28 H          -0.154     5.917     5.858  H    
     29 H          -1.637     5.121     5.299  H    
     30 H           2.444     5.823     0.259  H    
     31 H           4.299     5.045    -1.077  H    
     32 H           5.262     2.849    -0.680  H    
     33 H           4.347     1.418     1.040  H    
     34 H           0.990     4.184     5.940  H    
     35 H           4.669     4.641     6.097  H    
     36 H           5.878     4.230     8.085  H    
     37 H           2.288     3.179    10.051  H    
     38 H           1.076     3.589     8.045  H    
     39 H           6.877     3.958    12.453  H    
     40 H           8.182     3.504    11.337  H    
     41 H           7.070     2.260    11.946  H    
@<TRIPOS>BOND
     1    1    2 1
     2    2    6 1
     3    2    3 2
     4    3    4 1
     5    3   14 1
     6    4    5 2
     7    4    7 1
     8    5    6 1
     9    7   12 ar
    10    7    8 ar
    11    8    9 ar
    12    9   10 ar
    13   10   11 ar
    14   11   12 ar
    15   12   13 1
    16   14   15 2
    17   14   16 1
    18   16   17 1
    19   17   22 ar
    20   17   18 ar
    21   18   19 ar
    22   19   20 ar
    23   20   21 ar
    24   20   23 1
    25   21   22 ar
    26   23   24 2
    27   23   25 1
    28   25   26 1
    29    1   27 1
    30    1   28 1
    31    1   29 1
    32    8   30 1
    33    9   31 1
    34   10   32 1
    35   11   33 1
    36   16   34 1
    37   18   35 1
    38   19   36 1
    39   21   37 1
    40   22   38 1
    41   26   39 1
    42   26   40 1
    43   26   41 1
@<TRIPOS>MOLECULE
ZINC00646430
 50 53 0 0 0
SMALL
NO_CHARGES


@<TRIPOS>ATOM
      1 C          -3.793     8.829     0.900  C    
      2 C          -5.033     8.151     1.265  C    
      3 C          -5.146     6.850     1.657  C    
      4 C          -6.476     6.274     1.992  C    
      5 N          -7.562     7.195     1.784  N    
      6 C          -7.369     8.462     1.394  C    
      7 N          -8.550     9.082     1.291  N    
      8 C          -9.451     8.148     1.625  C    
      9 N          -8.836     6.993     1.922  N    
     10 N          -6.128     8.927     1.153  N    
     11 C          -6.543     5.775     3.410  C    
     12 C          -6.327     6.683     4.478  C    
     13 C          -6.405     6.258     5.814  C    
     14 C          -6.707     4.916     6.117  C    
     15 C          -6.958     4.010     5.068  C    
     16 C          -6.847     4.417     3.722  C    
     17 O          -7.113     3.507     2.726  O    
     18 C          -6.041     2.579     2.488  C    
     19 O          -6.811     4.542     7.430  O    
     20 C          -5.729     3.707     7.884  C    
     21 C          -4.076     6.017     1.708  C    
     22 O          -3.431     5.981     2.747  O    
     23 N          -3.850     5.229     0.665  N    
     24 C          -2.884     4.279     0.467  C    
     25 C          -1.643     4.219     1.148  C    
     26 C          -0.707     3.212     0.849  C    
     27 C          -0.992     2.245    -0.134  C    
     28 C          -2.223     2.291    -0.819  C    
     29 C          -3.152     3.306    -0.525  C    
     30 Cl          0.143     1.044    -0.500  Cl   
     31 H          -3.850     9.154    -0.139  H    
     32 H          -2.904     8.209     1.000  H    
     33 H          -3.657     9.708     1.535  H    
     34 H          -6.655     5.459     1.283  H    
     35 H         -10.460     8.288     1.650  H    
     36 H          -6.024     9.845     0.858  H    
     37 H          -6.111     7.667     4.283  H    
     38 H          -6.239     6.928     6.571  H    
     39 H          -7.214     3.043     5.292  H    
     40 H          -5.090     3.087     2.295  H    
     41 H          -6.290     1.983     1.605  H    
     42 H          -5.921     1.906     3.340  H    
     43 H          -5.775     2.728     7.396  H    
     44 H          -5.839     3.567     8.961  H    
     45 H          -4.750     4.164     7.695  H    
     46 H          -4.507     5.298    -0.047  H    
     47 H          -1.391     4.925     1.841  H    
     48 H           0.187     3.193     1.344  H    
     49 H          -2.441     1.596    -1.536  H    
     50 H          -4.041     3.325    -1.033  H    
@<TRIPOS>BOND
     1    1    2 1
     2    2   10 1
     3    2    3 2
     4    3    4 1
     5    3   21 1
     6    4    5 1
     7    4   11 1
     8    5    9 1
     9    5    6 1
    10    6    7 2
    11    6   10 1
    12    7    8 1
    13    8    9 2
    14   11   16 ar
    15   11   12 ar
    16   12   13 ar
    17   13   14 ar
    18   14   15 ar
    19   14   19 1
    20   15   16 ar
    21   16   17 1
    22   17   18 1
    23   19   20 1
    24   21   22 2
    25   21   23 1
    26   23   24 1
    27   24   29 ar
    28   24   25 ar
    29   25   26 ar
    30   26   27 ar
    31   27   28 ar
    32   27   30 1
    33   28   29 ar
    34    1   31 1
    35    1   32 1
    36    1   33 1
    37    4   34 1
    38    8   35 1
    39   10   36 1
    40   12   37 1
    41   13   38 1
    42   15   39 1
    43   18   40 1
    44   18   41 1
    45   18   42 1
    46   20   43 1
    47   20   44 1
    48   20   45 1
    49   23   46 1
    50   25   47 1
    51   26   48 1
    52   28   49 1
    53   29   50 1
@<TRIPOS>MOLECULE
ZINC00659061
 50 52 0 0 0
SMALL
NO_CHARGES


@<TRIPOS>ATOM
      1 C          -0.695    -1.253    -0.924  C    
      2 O           0.575    -1.896    -1.145  O    
      3 C           1.015    -1.834    -2.447  C    
      4 C           0.480    -2.725    -3.402  C    
      5 C           0.895    -2.669    -4.743  C    
      6 C           1.862    -1.730    -5.136  C    
      7 C           2.447    -0.864    -4.187  C    
      8 C           2.028    -0.915    -2.830  C    
      9 C           2.587    -0.052    -1.889  C    
     10 O           2.406     1.137    -2.133  O    
     11 N           3.255    -0.432    -0.780  N    
     12 C           3.665    -1.803    -0.518  C    
     13 C           5.199    -1.885    -0.301  C    
     14 C           5.199     0.472     0.435  C    
     15 C           3.663     0.521     0.237  C    
     16 C           7.117    -1.030     1.026  C    
     17 C           7.524    -0.342     2.281  C    
     18 C           6.983    -0.751     3.523  C    
     19 C           7.355    -0.102     4.717  C    
     20 C           8.277     0.960     4.686  C    
     21 C           8.824     1.374     3.456  C    
     22 C           8.451     0.725     2.264  C    
     23 Br          8.775     1.813     6.263  Br   
     24 O           3.384     0.046    -4.603  O    
     25 C           4.725    -0.473    -4.664  C    
     26 N           5.649    -0.920     0.749  N    
     27 H          -0.713    -0.224    -1.315  H    
     28 H          -0.879    -1.211     0.151  H    
     29 H          -1.501    -1.835    -1.387  H    
     30 H          -0.227    -3.410    -3.127  H    
     31 H           0.485    -3.304    -5.428  H    
     32 H           2.139    -1.680    -6.120  H    
     33 H           3.155    -2.156     0.383  H    
     34 H           3.418    -2.498    -1.322  H    
     35 H           5.444    -2.907     0.002  H    
     36 H           5.709    -1.682    -1.250  H    
     37 H           5.690     0.842    -0.472  H    
     38 H           5.454     1.142     1.259  H    
     39 H           3.386     1.554     0.012  H    
     40 H           3.170     0.265     1.179  H    
     41 H           7.681    -0.652     0.167  H    
     42 H           7.393    -2.081     1.149  H    
     43 H           6.306    -1.516     3.560  H    
     44 H           6.953    -0.405     5.606  H    
     45 H           9.493     2.145     3.421  H    
     46 H           8.859     1.040     1.381  H    
     47 H           5.011    -1.002    -3.744  H    
     48 H           5.408     0.366    -4.801  H    
     49 H           4.837    -1.146    -5.522  H    
     50 H           5.167    -1.193     1.609  H    
@<TRIPOS>BOND
     1    1    2 1
     2    2    3 1
     3    3    8 ar
     4    3    4 ar
     5    4    5 ar
     6    5    6 ar
     7    6    7 ar
     8    7    8 ar
     9    7   24 1
    10    8    9 1
    11    9   10 2
    12    9   11 1
    13   11   15 1
    14   11   12 1
    15   12   13 1
    16   13   26 1
    17   14   15 1
    18   14   26 1
    19   16   17 1
    20   16   26 1
    21   17   22 ar
    22   17   18 ar
    23   18   19 ar
    24   19   20 ar
    25   20   21 ar
    26   20   23 1
    27   21   22 ar
    28   24   25 1
    29    1   27 1
    30    1   28 1
    31    1   29 1
    32    4   30 1
    33    5   31 1
    34    6   32 1
    35   12   33 1
    36   12   34 1
    37   13   35 1
    38   13   36 1
    39   14   37 1
    40   14   38 1
    41   15   39 1
    42   15   40 1
    43   16   41 1
    44   16   42 1
    45   18   43 1
    46   19   44 1
    47   21   45 1
    48   22   46 1
    49   25   47 1
    50   25   48 1
    51   25   49 1
    52   26   50 1
@<TRIPOS>MOLECULE
ZINC00663436
 45 48 0 0 0
SMALL
NO_CHARGES


@<TRIPOS>ATOM
      1 C           7.190    -1.516    -3.184  C    
      2 C           6.260    -0.879    -2.244  C    
      3 C           6.528    -0.418    -0.963  C    
      4 C           5.330     0.094    -0.483  C    
      5 N           4.407    -0.070    -1.455  N    
      6 O           4.952    -0.642    -2.495  O    
      7 N           5.182     0.629     0.750  N    
      8 C           4.064     1.090     1.293  C    
      9 O           2.996     1.082     0.693  O    
     10 C           4.077     1.585     2.650  C    
     11 S           3.266     0.403     3.762  S    
     12 C           3.368     1.172     5.336  C    
     13 C           2.781     0.592     6.500  C    
     14 C           2.963     1.255     7.754  C    
     15 C           3.580     2.530     7.778  C    
     16 C           4.082     3.066     6.594  C    
     17 N           3.976     2.387     5.427  N    
     18 C           4.731     4.358     6.780  C    
     19 C           4.436     4.696     8.262  C    
     20 C           3.828     3.427     8.913  C    
     21 C           2.498     0.710     8.981  C    
     22 C           1.114     0.692     9.276  C    
     23 C           0.656     0.144    10.489  C    
     24 C           1.599    -0.388    11.392  C    
     25 N           2.924    -0.363    11.083  N    
     26 C           3.396     0.164     9.922  C    
     27 C           2.390    -0.657     6.474  C    
     28 N           2.129    -1.779     6.480  N    
     29 H           6.823    -2.506    -3.446  H    
     30 H           8.178    -1.611    -2.742  H    
     31 H           7.263    -0.915    -4.088  H    
     32 H           7.420    -0.455    -0.468  H    
     33 H           5.974     0.658     1.307  H    
     34 H           5.106     1.733     2.987  H    
     35 H           3.558     2.546     2.696  H    
     36 H           5.807     4.268     6.592  H    
     37 H           4.309     5.110     6.102  H    
     38 H           5.349     5.006     8.784  H    
     39 H           3.715     5.523     8.311  H    
     40 H           2.897     3.662     9.431  H    
     41 H           4.524     2.964     9.613  H    
     42 H           0.432     1.075     8.613  H    
     43 H          -0.340     0.124    10.713  H    
     44 H           1.298    -0.794    12.283  H    
     45 H           4.401     0.153     9.746  H    
@<TRIPOS>BOND
     1    1    2 1
     2    2    6 1
     3    2    3 2
     4    3    4 1
     5    4    5 2
     6    4    7 1
     7    5    6 1
     8    7    8 1
     9    8    9 2
    10    8   10 1
    11   10   11 1
    12   11   12 1
    13   12   17 ar
    14   12   13 ar
    15   13   14 ar
    16   13   27 1
    17   14   15 ar
    18   14   21 1
    19   15   20 1
    20   15   16 ar
    21   16   17 ar
    22   16   18 1
    23   18   19 1
    24   19   20 1
    25   21   26 ar
    26   21   22 ar
    27   22   23 ar
    28   23   24 ar
    29   24   25 ar
    30   25   26 ar
    31   27   28 3
    32    1   29 1
    33    1   30 1
    34    1   31 1
    35    3   32 1
    36    7   33 1
    37   10   34 1
    38   10   35 1
    39   18   36 1
    40   18   37 1
    41   19   38 1
    42   19   39 1
    43   20   40 1
    44   20   41 1
    45   22   42 1
    46   23   43 1
    47   24   44 1
    48   26   45 1
@<TRIPOS>MOLECULE
ZINC00671561
 28 29 0 0 0
SMALL
NO_CHARGES


@<TRIPOS>ATOM
      1 C           7.864    -7.908    -1.139  C    
      2 C           7.343    -9.210    -1.145  C    
      3 C           6.406    -9.587    -0.170  C    
      4 C           5.989    -8.672     0.818  C    
      5 C           6.511    -7.347     0.844  C    
      6 C           7.453    -6.989    -0.158  C    
      7 C           6.144    -6.408     1.812  C    
      8 O           5.961    -6.779     2.961  O    
      9 N           6.050    -5.120     1.500  N    
     10 N           5.748    -4.110     2.225  N    
     11 C           5.442    -3.911     3.455  C    
     12 C           5.158    -2.639     3.893  C    
     13 C           4.810    -2.269     5.190  C    
     14 C           4.609    -0.897     5.184  C    
     15 C           4.839    -0.451     3.885  C    
     16 O           5.169    -1.525     3.120  O    
     17 N           4.754     0.818     3.432  N    
     18 O           4.980     1.067     2.278  O    
     19 O           4.432     1.807     4.220  O    
     20 I           4.534    -9.358     2.107  I    
     21 H           8.547    -7.628    -1.847  H    
     22 H           7.639    -9.881    -1.858  H    
     23 H           6.018   -10.532    -0.189  H    
     24 H           7.870    -6.055    -0.173  H    
     25 H           6.222    -4.906     0.569  H    
     26 H           5.404    -4.662     4.100  H    
     27 H           4.716    -2.886     5.999  H    
     28 H           4.343    -0.325     5.990  H    
@<TRIPOS>BOND
     1    1    6 ar
     2    1    2 ar
     3    2    3 ar
     4    3    4 ar
     5    4    5 ar
     6    4   20 1
     7    5    6 ar
     8    5    7 1
     9    7    8 2
    10    7    9 1
    11    9   10 1
    12   10   11 2
    13   11   12 1
    14   12   16 1
    15   12   13 2
    16   13   14 1
    17   14   15 2
    18   15   16 1
    19   15   17 1
    20   17   18 2
    21   17   19 1
    22    1   21 1
    23    2   22 1
    24    3   23 1
    25    6   24 1
    26    9   25 1
    27   11   26 1
    28   13   27 1
    29   14   28 1
@<TRIPOS>MOLECULE
ZINC00677358
 45 47 0 0 0
SMALL
NO_CHARGES


@<TRIPOS>ATOM
      1 C           8.293    -2.570    -1.174  C    
      2 C           6.877    -2.285    -1.106  C    
      3 O           6.362    -1.816    -2.111  O    
      4 N           6.200    -2.575    -0.000  N    
      5 C           4.875    -2.416     0.316  C    
      6 C           3.943    -1.625    -0.397  C    
      7 C           2.601    -1.533     0.023  C    
      8 C           2.149    -2.219     1.177  C    
      9 C           3.085    -2.996     1.898  C    
     10 C           4.426    -3.087     1.474  C    
     11 C           0.825    -2.142     1.599  C    
     12 N          -0.102    -1.478     1.012  N    
     13 C          -1.221    -1.613     1.625  C    
     14 C          -2.410    -1.111     1.237  C    
     15 C          -2.631    -0.248     0.161  C    
     16 C          -1.716     0.768    -0.197  C    
     17 C          -1.972     1.616    -1.286  C    
     18 C          -3.151     1.474    -2.059  C    
     19 C          -4.088     0.474    -1.708  C    
     20 C          -3.820    -0.367    -0.594  C    
     21 O          -5.211     0.395    -2.508  O    
     22 C          -6.278    -0.523    -2.238  C    
     23 O          -3.475     2.261    -3.145  O    
     24 C          -2.551     3.206    -3.704  C    
     25 C          -0.992    -2.445     2.679  C    
     26 O          -1.881    -2.890     3.595  O    
     27 O           0.314    -2.768     2.655  O    
     28 H           8.495    -3.272    -1.988  H    
     29 H           8.668    -3.011    -0.244  H    
     30 H           8.849    -1.647    -1.363  H    
     31 H           6.733    -2.999     0.691  H    
     32 H           4.221    -1.091    -1.221  H    
     33 H           1.961    -0.956    -0.525  H    
     34 H           2.805    -3.510     2.738  H    
     35 H           5.073    -3.663     2.020  H    
     36 H          -3.216    -1.431     1.729  H    
     37 H          -0.864     0.922     0.347  H    
     38 H          -1.281     2.337    -1.506  H    
     39 H          -4.492    -1.097    -0.346  H    
     40 H          -5.924    -1.556    -2.307  H    
     41 H          -7.056    -0.381    -2.987  H    
     42 H          -6.708    -0.344    -1.249  H    
     43 H          -2.343     4.009    -2.991  H    
     44 H          -3.001     3.644    -4.593  H    
     45 H          -1.615     2.712    -3.992  H    
@<TRIPOS>BOND
     1    1    2 1
     2    2    3 2
     3    2    4 1
     4    4    5 1
     5    5   10 ar
     6    5    6 ar
     7    6    7 ar
     8    7    8 ar
     9    8    9 ar
    10    8   11 1
    11    9   10 ar
    12   11   27 1
    13   11   12 2
    14   12   13 1
    15   13   14 2
    16   13   25 1
    17   14   15 1
    18   15   20 ar
    19   15   16 ar
    20   16   17 ar
    21   17   18 ar
    22   18   19 ar
    23   18   23 1
    24   19   20 ar
    25   19   21 1
    26   21   22 1
    27   23   24 1
    28   25   26 2
    29   25   27 1
    30    1   28 1
    31    1   29 1
    32    1   30 1
    33    4   31 1
    34    6   32 1
    35    7   33 1
    36    9   34 1
    37   10   35 1
    38   14   36 1
    39   16   37 1
    40   17   38 1
    41   20   39 1
    42   22   40 1
    43   22   41 1
    44   22   42 1
    45   24   43 1
    46   24   44 1
    47   24   45 1
@<TRIPOS>MOLECULE
ZINC00681788
 65 69 0 0 0
SMALL
NO_CHARGES


@<TRIPOS>ATOM
      1 C          10.177     0.517    -5.220  C    
      2 C           9.069     1.203    -4.398  C    
      3 O           7.993     0.268    -4.192  O    
      4 C           6.984     0.558    -3.296  C    
      5 C           6.524     1.862    -2.988  C    
      6 C           5.449     2.052    -2.100  C    
      7 C           4.789     0.947    -1.509  C    
      8 C           5.256    -0.353    -1.824  C    
      9 C           6.334    -0.553    -2.714  C    
     10 O           6.808    -1.817    -2.975  O    
     11 C           5.965    -2.609    -3.832  C    
     12 C           3.581     1.134    -0.631  C    
     13 C           2.266     0.707    -1.178  C    
     14 C           1.140     0.774    -0.409  C    
     15 C          -0.174     0.431    -0.976  C    
     16 C          -0.060    -0.802    -1.929  C    
     17 C           1.003    -0.451    -3.015  C    
     18 C           2.125     0.345    -2.512  C    
     19 O           2.765     0.932    -3.379  O    
     20 C          -1.328    -1.318    -2.551  C    
     21 C          -1.290    -2.555    -3.240  C    
     22 C          -2.439    -3.081    -3.860  C    
     23 C          -3.663    -2.382    -3.800  C    
     24 C          -3.727    -1.167    -3.094  C    
     25 C          -2.571    -0.633    -2.491  C    
     26 O          -4.791    -2.928    -4.358  O    
     27 C          -5.081    -2.410    -5.665  C    
     28 N           1.061     1.165     0.876  N    
     29 C           1.938     1.044     1.903  C    
     30 C           1.405     1.267     3.194  C    
     31 C           2.166     0.997     4.346  C    
     32 C           3.471     0.494     4.219  C    
     33 C           4.023     0.293     2.941  C    
     34 C           3.281     0.604     1.781  C    
     35 N           3.937     0.500     0.605  N    
     36 H          10.576    -0.339    -4.669  H    
     37 H          10.989     1.223    -5.413  H    
     38 H           9.777     0.171    -6.178  H    
     39 H           9.489     1.539    -3.442  H    
     40 H           8.704     2.068    -4.961  H    
     41 H           6.959     2.683    -3.414  H    
     42 H           5.132     3.009    -1.911  H    
     43 H           4.794    -1.167    -1.412  H    
     44 H           5.070    -2.939    -3.295  H    
     45 H           6.525    -3.497    -4.137  H    
     46 H           5.668    -2.066    -4.736  H    
     47 H           3.477     2.204    -0.412  H    
     48 H          -0.904     0.194    -0.194  H    
     49 H          -0.539     1.303    -1.527  H    
     50 H           0.341    -1.621    -1.320  H    
     51 H           1.406    -1.371    -3.456  H    
     52 H           0.508     0.113    -3.816  H    
     53 H          -0.421    -3.093    -3.296  H    
     54 H          -2.392    -3.977    -4.347  H    
     55 H          -4.616    -0.662    -3.023  H    
     56 H          -2.654     0.263    -2.008  H    
     57 H          -5.356    -1.350    -5.613  H    
     58 H          -5.933    -2.962    -6.064  H    
     59 H          -4.239    -2.537    -6.356  H    
     60 H           0.168     1.421     1.159  H    
     61 H           0.441     1.591     3.309  H    
     62 H           1.762     1.148     5.275  H    
     63 H           4.024     0.284     5.052  H    
     64 H           4.985    -0.047     2.864  H    
     65 H           4.832     0.120     0.651  H    
@<TRIPOS>BOND
     1    1    2 1
     2    2    3 1
     3    3    4 1
     4    4    9 ar
     5    4    5 ar
     6    5    6 ar
     7    6    7 ar
     8    7    8 ar
     9    7   12 1
    10    8    9 ar
    11    9   10 1
    12   10   11 1
    13   12   35 1
    14   12   13 1
    15   13   18 1
    16   13   14 2
    17   14   15 1
    18   14   28 1
    19   15   16 1
    20   16   17 1
    21   16   20 1
    22   17   18 1
    23   18   19 2
    24   20   25 ar
    25   20   21 ar
    26   21   22 ar
    27   22   23 ar
    28   23   24 ar
    29   23   26 1
    30   24   25 ar
    31   26   27 1
    32   28   29 1
    33   29   34 ar
    34   29   30 ar
    35   30   31 ar
    36   31   32 ar
    37   32   33 ar
    38   33   34 ar
    39   34   35 1
    40    1   36 1
    41    1   37 1
    42    1   38 1
    43    2   39 1
    44    2   40 1
    45    5   41 1
    46    6   42 1
    47    8   43 1
    48   11   44 1
    49   11   45 1
    50   11   46 1
    51   12   47 1
    52   15   48 1
    53   15   49 1
    54   16   50 1
    55   17   51 1
    56   17   52 1
    57   21   53 1
    58   22   54 1
    59   24   55 1
    60   25   56 1
    61   27   57 1
    62   27   58 1
    63   27   59 1
    64   28   60 1
    65   30   61 1
    66   31   62 1
    67   32   63 1
    68   33   64 1
    69   35   65 1
@<TRIPOS>MOLECULE
ZINC00687002
 48 51 0 0 0
SMALL
NO_CHARGES


@<TRIPOS>ATOM
      1 C           2.986     1.465    -0.170  C    
      2 O           2.242     2.679    -0.368  O    
      3 C           2.370     3.190    -1.632  C    
      4 C           1.410     2.867    -2.613  C    
      5 C           1.492     3.389    -3.929  C    
      6 C           2.555     4.281    -4.218  C    
      7 C           3.511     4.616    -3.243  C    
      8 C           3.413     4.088    -1.942  C    
      9 O           4.353     4.398    -0.997  O    
     10 C           4.106     5.641    -0.314  C    
     11 C           5.152     5.827     0.721  C    
     12 C           4.823     5.903     2.095  C    
     13 C           5.830     6.074     3.064  C    
     14 C           7.176     6.171     2.672  C    
     15 C           7.516     6.098     1.310  C    
     16 C           6.510     5.929     0.341  C    
     17 C           0.563     3.099    -4.932  C    
     18 C          -0.174     1.982    -5.049  C    
     19 N          -1.027     1.784    -5.996  N    
     20 C          -1.546     0.615    -5.910  C    
     21 C          -0.977     0.022    -4.819  C    
     22 O          -1.265    -1.172    -4.258  O    
     23 O          -0.116     0.905    -4.284  O    
     24 C          -2.494     0.109    -6.803  C    
     25 C          -2.644    -1.286    -7.026  C    
     26 C          -3.594    -1.779    -7.940  C    
     27 C          -4.415    -0.888    -8.652  C    
     28 C          -4.283     0.497    -8.450  C    
     29 C          -3.327     0.989    -7.541  C    
     30 H           2.682     0.689    -0.875  H    
     31 H           2.789     1.105     0.839  H    
     32 H           4.058     1.642    -0.263  H    
     33 H           0.634     2.263    -2.338  H    
     34 H           2.655     4.687    -5.153  H    
     35 H           4.276     5.251    -3.479  H    
     36 H           4.155     6.481    -1.012  H    
     37 H           3.109     5.632     0.139  H    
     38 H           3.850     5.833     2.401  H    
     39 H           5.582     6.127     4.055  H    
     40 H           7.907     6.292     3.376  H    
     41 H           8.496     6.166     1.025  H    
     42 H           6.776     5.877    -0.646  H    
     43 H           0.468     3.766    -5.667  H    
     44 H          -2.044    -1.962    -6.550  H    
     45 H          -3.680    -2.787    -8.095  H    
     46 H          -5.105    -1.246    -9.316  H    
     47 H          -4.880     1.147    -8.968  H    
     48 H          -3.258     2.003    -7.413  H    
@<TRIPOS>BOND
     1    1    2 1
     2    2    3 1
     3    3    8 ar
     4    3    4 ar
     5    4    5 ar
     6    5    6 ar
     7    5   17 1
     8    6    7 ar
     9    7    8 ar
    10    8    9 1
    11    9   10 1
    12   10   11 1
    13   11   16 ar
    14   11   12 ar
    15   12   13 ar
    16   13   14 ar
    17   14   15 ar
    18   15   16 ar
    19   17   18 2
    20   18   23 1
    21   18   19 1
    22   19   20 2
    23   20   21 1
    24   20   24 1
    25   21   22 2
    26   21   23 1
    27   24   29 ar
    28   24   25 ar
    29   25   26 ar
    30   26   27 ar
    31   27   28 ar
    32   28   29 ar
    33    1   30 1
    34    1   31 1
    35    1   32 1
    36    4   33 1
    37    6   34 1
    38    7   35 1
    39   10   36 1
    40   10   37 1
    41   12   38 1
    42   13   39 1
    43   14   40 1
    44   15   41 1
    45   16   42 1
    46   17   43 1
    47   25   44 1
    48   26   45 1
    49   27   46 1
    50   28   47 1
    51   29   48 1
@<TRIPOS>MOLECULE
ZINC00699922
 53 55 0 0 0
SMALL
NO_CHARGES


@<TRIPOS>ATOM
      1 C           2.918    -7.602    -2.195  C    
      2 C           3.296    -8.074    -0.764  C    
      3 C           2.149    -8.897    -0.115  C    
      4 C           4.613    -8.813    -0.729  C    
      5 C           4.742   -10.000    -1.490  C    
      6 C           5.957   -10.698    -1.549  C    
      7 C           7.073   -10.221    -0.849  C    
      8 C           7.004    -9.049    -0.058  C    
      9 C           5.748    -8.368     0.020  C    
     10 N           5.635    -7.254     0.797  N    
     11 C           5.007    -7.187     1.970  C    
     12 O           4.607    -8.232     2.477  O    
     13 N           4.784    -6.016     2.585  N    
     14 C           5.278    -4.767     2.078  C    
     15 C           5.257    -3.753     3.227  C    
     16 S           3.811    -4.144     4.215  S    
     17 C           4.038    -5.894     3.821  C    
     18 C           2.684    -6.527     3.812  C    
     19 C           1.742    -6.228     2.796  C    
     20 C           0.482    -6.861     2.797  C    
     21 N           0.176    -7.755     3.773  N    
     22 C           1.048    -8.074     4.765  C    
     23 C           2.320    -7.472     4.804  C    
     24 C           8.257    -8.616     0.666  C    
     25 C           8.745    -7.184     0.297  C    
     26 C           8.164    -8.823     2.205  C    
     27 H           2.713    -8.445    -2.854  H    
     28 H           3.733    -7.012    -2.626  H    
     29 H           2.028    -6.969    -2.161  H    
     30 H           3.362    -7.154    -0.181  H    
     31 H           1.240    -8.294    -0.053  H    
     32 H           2.422    -9.201     0.899  H    
     33 H           1.928    -9.792    -0.696  H    
     34 H           3.950   -10.373    -2.018  H    
     35 H           6.030   -11.552    -2.107  H    
     36 H           7.944   -10.751    -0.922  H    
     37 H           5.973    -6.425     0.420  H    
     38 H           6.310    -4.846     1.718  H    
     39 H           4.647    -4.428     1.248  H    
     40 H           6.149    -3.857     3.848  H    
     41 H           5.196    -2.729     2.861  H    
     42 H           4.656    -6.319     4.617  H    
     43 H           1.960    -5.554     2.061  H    
     44 H          -0.204    -6.650     2.069  H    
     45 H           0.775    -8.750     5.480  H    
     46 H           2.965    -7.720     5.557  H    
     47 H           9.082    -9.266     0.355  H    
     48 H           8.717    -7.037    -0.789  H    
     49 H           9.778    -7.042     0.633  H    
     50 H           8.130    -6.413     0.768  H    
     51 H           7.477    -8.118     2.671  H    
     52 H           9.146    -8.682     2.663  H    
     53 H           7.824    -9.839     2.423  H    
@<TRIPOS>BOND
     1    1    2 1
     2    2    3 1
     3    2    4 1
     4    4    9 ar
     5    4    5 ar
     6    5    6 ar
     7    6    7 ar
     8    7    8 ar
     9    8    9 ar
    10    8   24 1
    11    9   10 1
    12   10   11 1
    13   11   12 2
    14   11   13 1
    15   13   17 1
    16   13   14 1
    17   14   15 1
    18   15   16 1
    19   16   17 1
    20   17   18 1
    21   18   23 ar
    22   18   19 ar
    23   19   20 ar
    24   20   21 ar
    25   21   22 ar
    26   22   23 ar
    27   24   25 1
    28   24   26 1
    29    1   27 1
    30    1   28 1
    31    1   29 1
    32    2   30 1
    33    3   31 1
    34    3   32 1
    35    3   33 1
    36    5   34 1
    37    6   35 1
    38    7   36 1
    39   10   37 1
    40   14   38 1
    41   14   39 1
    42   15   40 1
    43   15   41 1
    44   17   42 1
    45   19   43 1
    46   20   44 1
    47   22   45 1
    48   23   46 1
    49   24   47 1
    50   25   48 1
    51   25   49 1
    52   25   50 1
    53   26   51 1
    54   26   52 1
    55   26   53 1
@<TRIPOS>MOLECULE
ZINC00700323
 57 60 0 0 0
SMALL
NO_CHARGES


@<TRIPOS>ATOM
      1 C           1.726    -6.343    -2.483  C    
      2 C           0.945    -5.177    -2.412  C    
      3 C           1.520    -3.928    -2.713  C    
      4 C           2.874    -3.830    -3.102  C    
      5 C           3.643    -5.016    -3.177  C    
      6 C           3.073    -6.265    -2.865  C    
      7 C           3.492    -2.514    -3.428  C    
      8 C           4.579    -2.056    -2.406  C    
      9 C           3.968    -1.743    -1.004  C    
     10 C           5.047    -1.195    -0.034  C    
     11 N           5.714    -0.032    -0.604  N    
     12 C           6.385    -0.299    -1.873  C    
     13 C           5.367    -0.816    -2.926  C    
     14 C           5.722     1.196    -0.042  C    
     15 O           6.530     2.027    -0.439  O    
     16 C           4.845     1.645     1.056  C    
     17 C           5.497     1.410     2.453  C    
     18 C           4.559     1.889     3.591  C    
     19 C           4.079     3.349     3.364  C    
     20 N           3.501     3.491     2.033  N    
     21 C           4.409     3.143     0.947  C    
     22 C           2.245     3.941     1.840  C    
     23 O           1.635     4.475     2.765  O    
     24 C           1.515     3.816     0.661  C    
     25 C           0.689     4.848     0.153  C    
     26 N           0.005     4.643    -1.004  N    
     27 C           0.065     3.471    -1.686  C    
     28 C           0.857     2.426    -1.180  C    
     29 N           1.544     2.640    -0.028  N    
     30 H           1.310    -7.249    -2.256  H    
     31 H          -0.037    -5.235    -2.137  H    
     32 H           0.940    -3.090    -2.641  H    
     33 H           4.623    -4.981    -3.460  H    
     34 H           3.640    -7.110    -2.919  H    
     35 H           3.941    -2.601    -4.421  H    
     36 H           2.726    -1.737    -3.501  H    
     37 H           5.303    -2.865    -2.282  H    
     38 H           3.172    -0.997    -1.097  H    
     39 H           3.538    -2.651    -0.575  H    
     40 H           4.582    -1.026     0.932  H    
     41 H           5.795    -1.976     0.139  H    
     42 H           6.885     0.570    -2.307  H    
     43 H           7.162    -1.055    -1.719  H    
     44 H           5.908    -1.085    -3.839  H    
     45 H           4.671    -0.009    -3.172  H    
     46 H           3.911     1.084     1.002  H    
     47 H           5.717     0.351     2.597  H    
     48 H           6.442     1.954     2.516  H    
     49 H           3.687     1.231     3.635  H    
     50 H           5.082     1.816     4.548  H    
     51 H           3.389     3.591     4.174  H    
     52 H           4.930     4.028     3.468  H    
     53 H           5.286     3.793     1.016  H    
     54 H           3.996     3.327    -0.044  H    
     55 H           0.614     5.751     0.623  H    
     56 H          -0.462     3.354    -2.552  H    
     57 H           0.921     1.526    -1.662  H    
@<TRIPOS>BOND
     1    1    6 ar
     2    1    2 ar
     3    2    3 ar
     4    3    4 ar
     5    4    5 ar
     6    4    7 1
     7    5    6 ar
     8    7    8 1
     9    8   13 1
    10    8    9 1
    11    9   10 1
    12   10   11 1
    13   11   12 1
    14   11   14 1
    15   12   13 1
    16   14   15 2
    17   14   16 1
    18   16   21 1
    19   16   17 1
    20   17   18 1
    21   18   19 1
    22   19   20 1
    23   20   21 1
    24   20   22 1
    25   22   23 2
    26   22   24 1
    27   24   29 ar
    28   24   25 ar
    29   25   26 ar
    30   26   27 ar
    31   27   28 ar
    32   28   29 ar
    33    1   30 1
    34    2   31 1
    35    3   32 1
    36    5   33 1
    37    6   34 1
    38    7   35 1
    39    7   36 1
    40    8   37 1
    41    9   38 1
    42    9   39 1
    43   10   40 1
    44   10   41 1
    45   12   42 1
    46   12   43 1
    47   13   44 1
    48   13   45 1
    49   16   46 1
    50   17   47 1
    51   17   48 1
    52   18   49 1
    53   18   50 1
    54   19   51 1
    55   19   52 1
    56   21   53 1
    57   21   54 1
    58   25   55 1
    59   27   56 1
    60   28   57 1
@<TRIPOS>MOLECULE
ZINC00703481
 44 46 0 0 0
SMALL
NO_CHARGES


@<TRIPOS>ATOM
      1 C           1.025     7.500    -1.916  C    
      2 C           0.501     8.600    -0.975  C    
      3 O           0.829     8.279     0.381  O    
      4 C           0.549     9.026     1.482  C    
      5 O          -0.098    10.204     1.314  O    
      6 C           0.927     8.584     2.778  C    
      7 C           1.549     7.326     2.967  C    
      8 C           1.912     6.887     4.252  C    
      9 C           1.655     7.693     5.372  C    
     10 C           1.029     8.955     5.224  C    
     11 C           0.686     9.388     3.923  C    
     12 N           0.778     9.818     6.246  N    
     13 C           0.890     9.616     7.563  C    
     14 C           0.346     8.649     8.305  C    
     15 C           0.552     8.956     9.590  C    
     16 O           0.134     8.296    10.532  O    
     17 N           1.194    10.113     9.664  N    
     18 C           1.378    10.526     8.417  C    
     19 O           1.996    11.522     8.067  O    
     20 C           1.595    10.762    10.817  C    
     21 C           1.399    12.156    10.980  C    
     22 C           1.802    12.814    12.155  C    
     23 C           2.404    12.098    13.213  C    
     24 C           2.605    10.707    13.059  C    
     25 C           2.209    10.052    11.879  C    
     26 C           2.806    12.811    14.448  C    
     27 Cl         -0.677     7.443     7.775  Cl   
     28 H           2.110     7.419    -1.824  H    
     29 H           0.780     7.741    -2.950  H    
     30 H           0.569     6.541    -1.663  H    
     31 H           0.956     9.554    -1.250  H    
     32 H          -0.583     8.683    -1.078  H    
     33 H           1.747     6.710     2.173  H    
     34 H           2.370     5.977     4.369  H    
     35 H           1.957     7.368     6.293  H    
     36 H           0.241    10.306     3.815  H    
     37 H           0.541    10.725     5.982  H    
     38 H           0.942    12.703    10.247  H    
     39 H           1.642    13.821    12.239  H    
     40 H           3.044    10.162    13.806  H    
     41 H           2.389     9.048    11.792  H    
     42 H           3.568    13.558    14.210  H    
     43 H           3.214    12.130    15.199  H    
     44 H           1.940    13.319    14.882  H    
@<TRIPOS>BOND
     1    1    2 1
     2    2    3 1
     3    3    4 1
     4    4    5 2
     5    4    6 1
     6    6   11 ar
     7    6    7 ar
     8    7    8 ar
     9    8    9 ar
    10    9   10 ar
    11   10   11 ar
    12   10   12 1
    13   12   13 1
    14   13   18 1
    15   13   14 2
    16   14   15 1
    17   14   27 1
    18   15   16 2
    19   15   17 1
    20   17   18 1
    21   17   20 1
    22   18   19 2
    23   20   25 ar
    24   20   21 ar
    25   21   22 ar
    26   22   23 ar
    27   23   24 ar
    28   23   26 1
    29   24   25 ar
    30    1   28 1
    31    1   29 1
    32    1   30 1
    33    2   31 1
    34    2   32 1
    35    7   33 1
    36    8   34 1
    37    9   35 1
    38   11   36 1
    39   12   37 1
    40   21   38 1
    41   22   39 1
    42   24   40 1
    43   25   41 1
    44   26   42 1
    45   26   43 1
    46   26   44 1
@<TRIPOS>MOLECULE
ZINC00705959
 50 52 0 0 0
SMALL
NO_CHARGES


@<TRIPOS>ATOM
      1 C           4.779     0.816    -7.399  C    
      2 C           3.487     1.286    -6.683  C    
      3 C           3.783     2.284    -5.620  C    
      4 C           4.216     1.870    -4.339  C    
      5 C           4.506     2.815    -3.342  C    
      6 C           4.374     4.209    -3.598  C    
      7 C           3.953     4.613    -4.895  C    
      8 C           3.670     3.667    -5.889  C    
      9 C           4.675     5.240    -2.537  C    
     10 C           3.433     5.981    -2.182  C    
     11 C           3.448     7.332    -2.258  C    
     12 O           4.432     7.976    -2.908  O    
     13 C           5.661     7.425    -3.047  C    
     14 C           5.833     6.083    -2.946  C    
     15 C           7.061     5.472    -3.180  C    
     16 O           7.811     5.813    -4.262  O    
     17 O           7.478     4.471    -2.357  O    
     18 C           8.711     3.754    -2.437  C    
     19 C           8.397     2.412    -2.968  C    
     20 C           7.930     1.400    -2.098  C    
     21 C           7.530     0.157    -2.615  C    
     22 C           7.589    -0.082    -3.999  C    
     23 C           8.032     0.927    -4.873  C    
     24 C           8.429     2.174    -4.363  C    
     25 C           6.701     8.414    -3.302  C    
     26 N           2.486     8.092    -1.852  N    
     27 C           2.558     5.372    -1.473  C    
     28 N           1.799     4.874    -0.759  N    
     29 H           5.282     1.665    -7.863  H    
     30 H           4.526     0.091    -8.177  H    
     31 H           5.456     0.345    -6.689  H    
     32 H           2.808     1.704    -7.434  H    
     33 H           2.973     0.419    -6.254  H    
     34 H           4.322     0.878    -4.130  H    
     35 H           4.824     2.488    -2.436  H    
     36 H           3.867     5.599    -5.113  H    
     37 H           3.392     3.992    -6.813  H    
     38 H           5.009     4.727    -1.622  H    
     39 H           9.449     4.270    -3.067  H    
     40 H           9.142     3.695    -1.431  H    
     41 H           7.857     1.576    -1.098  H    
     42 H           7.183    -0.559    -1.986  H    
     43 H           7.293    -0.976    -4.370  H    
     44 H           8.053     0.765    -5.875  H    
     45 H           8.716     2.910    -5.006  H    
     46 H           6.504     8.882    -4.268  H    
     47 H           7.715     8.017    -3.317  H    
     48 H           6.682     9.181    -2.525  H    
     49 H           2.534     9.000    -1.980  H    
     50 H           1.724     7.729    -1.496  H    
@<TRIPOS>BOND
     1    1    2 1
     2    2    3 1
     3    3    8 ar
     4    3    4 ar
     5    4    5 ar
     6    5    6 ar
     7    6    7 ar
     8    6    9 1
     9    7    8 ar
    10    9   14 1
    11    9   10 1
    12   10   11 2
    13   10   27 1
    14   11   12 1
    15   11   26 1
    16   12   13 1
    17   13   14 2
    18   13   25 1
    19   14   15 1
    20   15   16 2
    21   15   17 1
    22   17   18 1
    23   18   19 1
    24   19   24 ar
    25   19   20 ar
    26   20   21 ar
    27   21   22 ar
    28   22   23 ar
    29   23   24 ar
    30   27   28 3
    31    1   29 1
    32    1   30 1
    33    1   31 1
    34    2   32 1
    35    2   33 1
    36    4   34 1
    37    5   35 1
    38    7   36 1
    39    8   37 1
    40    9   38 1
    41   18   39 1
    42   18   40 1
    43   20   41 1
    44   21   42 1
    45   22   43 1
    46   23   44 1
    47   24   45 1
    48   25   46 1
    49   25   47 1
    50   25   48 1
    51   26   49 1
    52   26   50 1
@<TRIPOS>MOLECULE
ZINC00713973
 39 41 0 0 0
SMALL
NO_CHARGES


@<TRIPOS>ATOM
      1 C           9.425   -11.864    -1.314  C    
      2 C           9.868   -13.096    -0.799  C    
      3 C           9.612   -13.429     0.542  C    
      4 C           8.916   -12.533     1.383  C    
      5 C           8.457   -11.277     0.879  C    
      6 C           8.727   -10.967    -0.486  C    
      7 C           7.776   -10.362     1.688  C    
      8 N           7.112    -9.333     1.194  N    
      9 C           6.393    -8.333     1.758  C    
     10 C           5.747    -7.438     0.874  C    
     11 C           4.959    -6.382     1.368  C    
     12 C           4.812    -6.195     2.759  C    
     13 C           5.469    -7.075     3.648  C    
     14 C           6.250    -8.137     3.154  C    
     15 S           3.834    -4.898     3.392  S    
     16 O           4.828    -3.919     4.156  O    
     17 O           3.077    -4.127     2.221  O    
     18 N           2.716    -5.525     4.491  N    
     19 C           1.851    -4.818     5.254  C    
     20 C           1.701    -3.410     5.250  C    
     21 C           0.756    -2.814     6.106  C    
     22 C          -0.025    -3.615     6.957  C    
     23 C           0.148    -5.010     6.930  C    
     24 N           1.068    -5.551     6.091  N    
     25 Cl          8.642   -13.068     2.977  Cl   
     26 H           9.614   -11.617    -2.290  H    
     27 H          10.375   -13.753    -1.396  H    
     28 H           9.940   -14.333     0.901  H    
     29 H           8.432   -10.073    -0.893  H    
     30 H           7.757   -10.501     2.668  H    
     31 H           5.832    -7.558    -0.140  H    
     32 H           4.492    -5.757     0.707  H    
     33 H           5.378    -6.951     4.662  H    
     34 H           6.713    -8.759     3.825  H    
     35 H           2.693    -6.491     4.589  H    
     36 H           2.263    -2.818     4.638  H    
     37 H           0.638    -1.799     6.113  H    
     38 H          -0.711    -3.190     7.585  H    
     39 H          -0.407    -5.618     7.534  H    
@<TRIPOS>BOND
     1    1    6 ar
     2    1    2 ar
     3    2    3 ar
     4    3    4 ar
     5    4    5 ar
     6    4   25 1
     7    5    6 ar
     8    5    7 1
     9    7    8 2
    10    8    9 1
    11    9   14 ar
    12    9   10 ar
    13   10   11 ar
    14   11   12 ar
    15   12   13 ar
    16   12   15 1
    17   13   14 ar
    18   15   16 2
    19   15   17 2
    20   15   18 1
    21   18   19 1
    22   19   24 ar
    23   19   20 ar
    24   20   21 ar
    25   21   22 ar
    26   22   23 ar
    27   23   24 ar
    28    1   26 1
    29    2   27 1
    30    3   28 1
    31    6   29 1
    32    7   30 1
    33   10   31 1
    34   11   32 1
    35   13   33 1
    36   14   34 1
    37   18   35 1
    38   20   36 1
    39   21   37 1
    40   22   38 1
    41   23   39 1
@<TRIPOS>MOLECULE
ZINC00721931
 42 44 0 0 0
SMALL
NO_CHARGES


@<TRIPOS>ATOM
      1 C          -0.683    -1.538    -3.324  C    
      2 C          -0.180    -2.177    -4.390  C    
      3 C           0.692    -1.555    -5.375  C    
      4 N           2.008    -2.163    -5.371  N    
      5 C           2.476    -2.899    -6.388  C    
      6 O           1.816    -3.125    -7.394  O    
      7 S           4.034    -3.611    -6.394  S    
      8 C           4.654    -3.019    -4.914  C    
      9 C           3.953    -2.262    -4.050  C    
     10 N           2.719    -1.921    -4.318  N    
     11 C           4.510    -1.791    -2.852  C    
     12 C           3.754    -1.780    -1.651  C    
     13 C           4.305    -1.301    -0.449  C    
     14 C           5.621    -0.780    -0.402  C    
     15 C           6.379    -0.801    -1.594  C    
     16 C           5.836    -1.292    -2.795  C    
     17 N           6.257    -0.281     0.706  N    
     18 C           5.788     0.136     1.882  C    
     19 O           4.577     0.143     2.090  O    
     20 C           6.648     0.625     2.882  C    
     21 C           8.052     0.424     2.830  C    
     22 C           8.903     0.915     3.840  C    
     23 C           8.368     1.613     4.934  C    
     24 C           6.984     1.821     5.016  C    
     25 C           6.137     1.333     4.003  C    
     26 H          -1.269    -2.023    -2.687  H    
     27 H          -0.478    -0.581    -3.151  H    
     28 H          -0.410    -3.136    -4.515  H    
     29 H           0.192    -1.643    -6.339  H    
     30 H           0.800    -0.478    -5.193  H    
     31 H           5.581    -3.300    -4.692  H    
     32 H           2.304    -1.389    -3.671  H    
     33 H           2.799    -2.150    -1.635  H    
     34 H           3.731    -1.356     0.392  H    
     35 H           7.339    -0.440    -1.600  H    
     36 H           6.416    -1.259    -3.639  H    
     37 H           7.211    -0.157     0.585  H    
     38 H           8.484    -0.099     2.066  H    
     39 H           9.910     0.758     3.781  H    
     40 H           8.985     1.964     5.671  H    
     41 H           6.592     2.330     5.810  H    
     42 H           5.137     1.518     4.095  H    
@<TRIPOS>BOND
     1    1    2 2
     2    2    3 1
     3    3    4 1
     4    4    5 1
     5    4   10 1
     6    5    6 2
     7    5    7 1
     8    7    8 1
     9    8    9 2
    10    9   11 1
    11    9   10 1
    12   11   16 ar
    13   11   12 ar
    14   12   13 ar
    15   13   14 ar
    16   14   15 ar
    17   14   17 1
    18   15   16 ar
    19   17   18 1
    20   18   19 2
    21   18   20 1
    22   20   25 ar
    23   20   21 ar
    24   21   22 ar
    25   22   23 ar
    26   23   24 ar
    27   24   25 ar
    28    1   26 1
    29    1   27 1
    30    2   28 1
    31    3   29 1
    32    3   30 1
    33    8   31 1
    34   10   32 1
    35   12   33 1
    36   13   34 1
    37   15   35 1
    38   16   36 1
    39   17   37 1
    40   21   38 1
    41   22   39 1
    42   23   40 1
    43   24   41 1
    44   25   42 1
@<TRIPOS>MOLECULE
ZINC00724304
 38 40 0 0 0
SMALL
NO_CHARGES


@<TRIPOS>ATOM
      1 C           5.371    -9.096     0.176  C    
      2 C           4.778    -9.289    -1.078  C    
      3 C           3.602    -8.593    -1.440  C    
      4 C           3.013    -7.682    -0.502  C    
      5 C           1.867    -6.953    -0.915  C    
      6 C           1.295    -7.142    -2.182  C    
      7 C           1.860    -8.060    -3.076  C    
      8 C           3.011    -8.782    -2.719  C    
      9 Br          3.678    -9.963    -4.005  Br   
     10 C           3.604    -7.507     0.791  C    
     11 C           4.792    -8.216     1.098  C    
     12 C           3.053    -6.716     1.799  C    
     13 O           1.874    -6.880     2.080  O    
     14 N           3.828    -5.861     2.460  N    
     15 C           3.558    -5.040     3.481  C    
     16 S           2.017    -4.828     4.190  S    
     17 N           4.554    -4.305     3.870  N    
     18 C           4.932    -4.049     5.193  C    
     19 C           5.307    -5.282     5.935  C    
     20 C           6.441    -6.038     5.553  C    
     21 C           6.793    -7.203     6.256  C    
     22 C           5.999    -7.608     7.344  C    
     23 N           4.912    -6.873     7.695  N    
     24 C           4.550    -5.742     7.037  C    
     25 H           6.221    -9.609     0.422  H    
     26 H           5.226    -9.945    -1.720  H    
     27 H           1.435    -6.256    -0.308  H    
     28 H           0.467    -6.609    -2.456  H    
     29 H           1.435    -8.191    -3.996  H    
     30 H           5.237    -8.125     2.018  H    
     31 H           4.748    -5.828     2.151  H    
     32 H           5.135    -3.997     3.204  H    
     33 H           5.798    -3.385     5.174  H    
     34 H           4.135    -3.502     5.701  H    
     35 H           7.015    -5.742     4.759  H    
     36 H           7.613    -7.749     5.982  H    
     37 H           6.231    -8.451     7.870  H    
     38 H           3.720    -5.234     7.354  H    
@<TRIPOS>BOND
     1    1   11 ar
     2    1    2 ar
     3    2    3 ar
     4    3    8 ar
     5    3    4 ar
     6    4    5 ar
     7    4   10 ar
     8    5    6 ar
     9    6    7 ar
    10    7    8 ar
    11    8    9 1
    12   10   11 ar
    13   10   12 1
    14   12   13 2
    15   12   14 1
    16   14   15 1
    17   15   16 2
    18   15   17 1
    19   17   18 1
    20   18   19 1
    21   19   24 ar
    22   19   20 ar
    23   20   21 ar
    24   21   22 ar
    25   22   23 ar
    26   23   24 ar
    27    1   25 1
    28    2   26 1
    29    5   27 1
    30    6   28 1
    31    7   29 1
    32   11   30 1
    33   14   31 1
    34   17   32 1
    35   18   33 1
    36   18   34 1
    37   20   35 1
    38   21   36 1
    39   22   37 1
    40   24   38 1
@<TRIPOS>MOLECULE
ZINC00738092
 59 63 0 0 0
SMALL
NO_CHARGES


@<TRIPOS>ATOM
      1 C           3.629     4.395     7.722  C    
      2 C           3.433     3.114     7.169  C    
      3 C           2.133     2.665     6.827  C    
      4 C           1.044     3.550     7.020  C    
      5 C           1.245     4.833     7.568  C    
      6 C           2.538     5.268     7.947  C    
      7 C           2.738     6.622     8.531  C    
      8 S           1.986     6.704    10.181  S    
      9 C           2.189     8.394    10.547  C    
     10 N           2.077     9.357     9.598  N    
     11 C           2.142    10.700     9.837  C    
     12 C           2.353    11.080    11.191  C    
     13 C           2.451    10.077    12.177  C    
     14 N           2.364     8.769    11.836  N    
     15 Cl          2.690    10.485    13.804  Cl   
     16 N           1.990    11.572     8.783  N    
     17 C           1.665    12.981     8.938  C    
     18 C           2.774    13.862     8.309  C    
     19 C           3.003    13.495     6.813  C    
     20 C           3.220    11.960     6.662  C    
     21 C           2.122    11.140     7.393  C    
     22 O           4.172    14.171     6.319  O    
     23 C           3.701    15.158     5.410  C    
     24 C           2.369    14.597     4.917  C    
     25 O           1.856    13.913     6.053  O    
     26 C           1.937     1.408     6.262  C    
     27 O           2.552     1.199     5.220  O    
     28 N           1.148     0.446     6.776  N    
     29 C           0.501     0.513     8.058  C    
     30 C           0.006    -0.914     8.353  C    
     31 C          -0.150    -1.540     6.961  C    
     32 C           0.907    -0.802     6.116  C    
     33 H           4.582     4.680     7.966  H    
     34 H           4.247     2.506     7.032  H    
     35 H           0.094     3.276     6.738  H    
     36 H           0.439     5.449     7.682  H    
     37 H           3.804     6.861     8.633  H    
     38 H           2.285     7.356     7.856  H    
     39 H           2.464    12.054    11.472  H    
     40 H           0.717    13.175     8.427  H    
     41 H           1.507    13.307     9.965  H    
     42 H           2.500    14.918     8.392  H    
     43 H           3.702    13.712     8.871  H    
     44 H           3.238    11.687     5.600  H    
     45 H           4.193    11.690     7.087  H    
     46 H           2.394    10.087     7.280  H    
     47 H           1.164    11.273     6.880  H    
     48 H           3.553    16.105     5.937  H    
     49 H           4.410    15.298     4.592  H    
     50 H           1.687    15.392     4.606  H    
     51 H           2.519    13.895     4.091  H    
     52 H           1.195     0.832     8.844  H    
     53 H          -0.346     1.206     8.020  H    
     54 H           0.762    -1.461     8.932  H    
     55 H          -0.940    -0.915     8.904  H    
     56 H           0.022    -2.618     6.985  H    
     57 H          -1.154    -1.343     6.572  H    
     58 H           0.522    -0.647     5.105  H    
     59 H           1.830    -1.387     6.067  H    
@<TRIPOS>BOND
     1    1    6 ar
     2    1    2 ar
     3    2    3 ar
     4    3    4 ar
     5    3   26 1
     6    4    5 ar
     7    5    6 ar
     8    6    7 1
     9    7    8 1
    10    8    9 1
    11    9   14 ar
    12    9   10 ar
    13   10   11 ar
    14   11   12 ar
    15   11   16 1
    16   12   13 ar
    17   13   14 ar
    18   13   15 1
    19   16   21 1
    20   16   17 1
    21   17   18 1
    22   18   19 1
    23   19   25 1
    24   19   20 1
    25   19   22 1
    26   20   21 1
    27   22   23 1
    28   23   24 1
    29   24   25 1
    30   26   27 2
    31   26   28 1
    32   28   32 1
    33   28   29 1
    34   29   30 1
    35   30   31 1
    36   31   32 1
    37    1   33 1
    38    2   34 1
    39    4   35 1
    40    5   36 1
    41    7   37 1
    42    7   38 1
    43   12   39 1
    44   17   40 1
    45   17   41 1
    46   18   42 1
    47   18   43 1
    48   20   44 1
    49   20   45 1
    50   21   46 1
    51   21   47 1
    52   23   48 1
    53   23   49 1
    54   24   50 1
    55   24   51 1
    56   29   52 1
    57   29   53 1
    58   30   54 1
    59   30   55 1
    60   31   56 1
    61   31   57 1
    62   32   58 1
    63   32   59 1
@<TRIPOS>MOLECULE
ZINC00803634
 54 56 0 0 0
SMALL
NO_CHARGES


@<TRIPOS>ATOM
      1 C          -3.438     5.902     4.350  C    
      2 C          -1.934     5.998     4.013  C    
      3 O          -1.205     6.798     4.961  O    
      4 C          -0.744     6.368     6.191  C    
      5 C          -0.864     5.022     6.625  C    
      6 C          -0.319     4.602     7.843  C    
      7 C           0.339     5.523     8.666  C    
      8 C           0.458     6.861     8.261  C    
      9 C          -0.057     7.317     7.018  C    
     10 C           0.149     8.767     6.596  C    
     11 C           1.615     9.032     6.091  C    
     12 C           2.117     8.085     4.952  C    
     13 N           2.697     6.886     5.498  N    
     14 C           3.724     7.076     6.506  C    
     15 C           3.470     8.168     7.434  C    
     16 C           2.506     9.103     7.261  C    
     17 C           2.188     9.970     8.292  C    
     18 C           0.900    10.366     8.496  C    
     19 C          -0.232     9.902     7.646  C    
     20 C          -0.669    11.034     6.966  C    
     21 N          -1.017    11.967     6.396  N    
     22 C          -1.333     9.525     8.388  C    
     23 N          -2.244     9.208     9.016  N    
     24 N           0.626    11.210     9.469  N    
     25 C           3.157    10.705     8.737  C    
     26 N           4.014    11.388     9.086  N    
     27 C           2.354     5.642     5.045  C    
     28 O           1.459     5.479     4.043  O    
     29 O           2.964     4.531     5.534  O    
     30 C           2.754     3.183     5.108  C    
     31 C           3.743     2.262     5.844  C    
     32 H          -3.577     5.439     5.326  H    
     33 H          -3.945     5.293     3.597  H    
     34 H          -3.891     6.896     4.358  H    
     35 H          -1.501     5.006     3.891  H    
     36 H          -1.838     6.480     3.037  H    
     37 H          -1.330     4.326     6.072  H    
     38 H          -0.404     3.633     8.128  H    
     39 H           0.724     5.220     9.555  H    
     40 H           0.922     7.488     8.894  H    
     41 H          -0.481     8.941     5.723  H    
     42 H           1.617    10.029     5.637  H    
     43 H           1.301     7.913     4.251  H    
     44 H           2.898     8.591     4.370  H    
     45 H           3.865     6.178     7.119  H    
     46 H           4.681     7.273     6.011  H    
     47 H           4.037     8.182     8.228  H    
     48 H          -0.246    11.467     9.623  H    
     49 H           1.297    11.544    10.003  H    
     50 H           1.726     2.867     5.302  H    
     51 H           2.944     3.123     4.034  H    
     52 H           4.767     2.586     5.647  H    
     53 H           3.625     1.235     5.495  H    
     54 H           3.559     2.298     6.918  H    
@<TRIPOS>BOND
     1    1    2 1
     2    2    3 1
     3    3    4 1
     4    4    9 ar
     5    4    5 ar
     6    5    6 ar
     7    6    7 ar
     8    7    8 ar
     9    8    9 ar
    10    9   10 1
    11   10   19 1
    12   10   11 1
    13   11   16 1
    14   11   12 1
    15   12   13 1
    16   13   14 1
    17   13   27 1
    18   14   15 1
    19   15   16 2
    20   16   17 1
    21   17   18 2
    22   17   25 1
    23   18   19 1
    24   18   24 1
    25   19   20 1
    26   19   22 1
    27   20   21 3
    28   22   23 3
    29   25   26 3
    30   27   28 2
    31   27   29 1
    32   29   30 1
    33   30   31 1
    34    1   32 1
    35    1   33 1
    36    1   34 1
    37    2   35 1
    38    2   36 1
    39    5   37 1
    40    6   38 1
    41    7   39 1
    42    8   40 1
    43   10   41 1
    44   11   42 1
    45   12   43 1
    46   12   44 1
    47   14   45 1
    48   14   46 1
    49   15   47 1
    50   24   48 1
    51   24   49 1
    52   30   50 1
    53   30   51 1
    54   31   52 1
    55   31   53 1
    56   31   54 1
@<TRIPOS>MOLECULE
ZINC00804074
 45 46 0 0 0
SMALL
NO_CHARGES


@<TRIPOS>ATOM
      1 C          -2.448    -3.658    -2.106  C    
      2 C          -1.243    -2.779    -2.530  C    
      3 C          -0.968    -2.894    -3.957  C    
      4 O          -0.628    -3.971    -4.432  O    
      5 C          -1.114    -1.753    -4.842  C    
      6 S           0.204    -3.250    -1.534  S    
      7 C           1.233    -1.874    -1.836  C    
      8 C           1.445    -0.806    -0.927  C    
      9 C           2.248     0.298    -1.348  C    
     10 C           2.958     0.184    -2.572  C    
     11 C           2.820    -0.966    -3.386  C    
     12 N           1.948    -1.924    -2.983  N    
     13 C           3.520    -1.146    -4.617  C    
     14 C           2.929    -1.877    -5.672  C    
     15 C           3.608    -2.059    -6.891  C    
     16 C           4.910    -1.533    -7.090  C    
     17 C           5.526    -0.814    -6.037  C    
     18 C           4.824    -0.631    -4.818  C    
     19 O           6.801    -0.336    -6.277  O    
     20 C           7.506     0.421    -5.275  C    
     21 O           5.636    -1.677    -8.257  O    
     22 C           5.089    -2.393    -9.378  C    
     23 C           2.401     1.538    -0.515  C    
     24 F           2.867     1.208     0.734  F    
     25 F           3.276     2.480    -1.007  F    
     26 F           1.191     2.174    -0.384  F    
     27 C           0.701    -0.755     0.150  C    
     28 N          -0.005    -0.610     1.041  N    
     29 H          -3.350    -3.335    -2.629  H    
     30 H          -2.623    -3.556    -1.034  H    
     31 H          -2.268    -4.712    -2.329  H    
     32 H          -1.498    -1.748    -2.268  H    
     33 H          -2.145    -1.395    -4.802  H    
     34 H          -0.874    -2.005    -5.878  H    
     35 H          -0.451    -0.947    -4.519  H    
     36 H           3.560     0.939    -2.882  H    
     37 H           1.995    -2.269    -5.581  H    
     38 H           3.129    -2.577    -7.617  H    
     39 H           5.267    -0.141    -4.057  H    
     40 H           6.957     1.333    -5.029  H    
     41 H           8.484     0.704    -5.662  H    
     42 H           7.655    -0.181    -4.376  H    
     43 H           4.882    -3.429    -9.104  H    
     44 H           5.814    -2.391   -10.190  H    
     45 H           4.176    -1.908    -9.731  H    
@<TRIPOS>BOND
     1    1    2 1
     2    2    3 1
     3    2    6 1
     4    3    4 2
     5    3    5 1
     6    6    7 1
     7    7   12 ar
     8    7    8 ar
     9    8    9 ar
    10    8   27 1
    11    9   10 ar
    12    9   23 1
    13   10   11 ar
    14   11   12 ar
    15   11   13 1
    16   13   18 ar
    17   13   14 ar
    18   14   15 ar
    19   15   16 ar
    20   16   17 ar
    21   16   21 1
    22   17   18 ar
    23   17   19 1
    24   19   20 1
    25   21   22 1
    26   23   24 1
    27   23   25 1
    28   23   26 1
    29   27   28 3
    30    1   29 1
    31    1   30 1
    32    1   31 1
    33    2   32 1
    34    5   33 1
    35    5   34 1
    36    5   35 1
    37   10   36 1
    38   14   37 1
    39   15   38 1
    40   18   39 1
    41   20   40 1
    42   20   41 1
    43   20   42 1
    44   22   43 1
    45   22   44 1
    46   22   45 1
@<TRIPOS>MOLECULE
ZINC00818282
 49 51 0 0 0
SMALL
NO_CHARGES


@<TRIPOS>ATOM
      1 C           1.633     2.455    -1.109  C    
      2 C           1.687     1.173    -1.959  C    
      3 O           1.855     1.503    -3.351  O    
      4 C           1.941     0.522    -4.317  C    
      5 C           1.853    -0.869    -4.055  C    
      6 C           1.934    -1.813    -5.091  C    
      7 C           2.138    -1.396    -6.433  C    
      8 C           2.225    -0.010    -6.693  C    
      9 C           2.121     0.952    -5.657  C    
     10 O           2.185     2.316    -5.852  O    
     11 C           2.266     2.885    -7.171  C    
     12 C           2.168    -2.389    -7.548  C    
     13 N           3.144    -3.386    -7.259  N    
     14 C           2.812    -4.623    -6.909  C    
     15 O           3.771    -5.338    -6.646  O    
     16 C           1.492    -4.997    -6.766  C    
     17 C           0.511    -4.208    -7.307  C    
     18 N           0.837    -2.940    -7.779  N    
     19 C          -0.055    -2.076    -8.359  C    
     20 C          -1.120    -1.511    -7.607  C    
     21 C          -1.987    -0.563    -8.191  C    
     22 C          -1.818    -0.174    -9.535  C    
     23 C          -0.760    -0.717   -10.304  C    
     24 C           0.122    -1.646    -9.699  C    
     25 C          -0.607    -0.313   -11.721  C    
     26 S          -1.142    -4.721    -7.523  S    
     27 C           1.302    -6.225    -6.399  C    
     28 N           1.137    -7.330    -6.140  N    
     29 H           2.562     3.016    -1.222  H    
     30 H           1.504     2.187    -0.059  H    
     31 H           0.794     3.076    -1.424  H    
     32 H           2.525     0.566    -1.607  H    
     33 H           0.752     0.626    -1.808  H    
     34 H           1.723    -1.221    -3.111  H    
     35 H           1.851    -2.794    -4.861  H    
     36 H           2.342     0.289    -7.656  H    
     37 H           3.180     2.565    -7.672  H    
     38 H           2.290     3.970    -7.076  H    
     39 H           1.394     2.609    -7.767  H    
     40 H           2.551    -1.924    -8.460  H    
     41 H           4.075    -3.130    -7.268  H    
     42 H          -1.240    -1.747    -6.630  H    
     43 H          -2.729    -0.147    -7.634  H    
     44 H          -2.458     0.501    -9.938  H    
     45 H           0.884    -2.035   -10.247  H    
     46 H          -1.506    -0.587   -12.277  H    
     47 H           0.247    -0.797   -12.201  H    
     48 H          -0.466     0.768   -11.788  H    
     49 H          -1.167    -5.920    -6.888  H    
@<TRIPOS>BOND
     1    1    2 1
     2    2    3 1
     3    3    4 1
     4    4    9 ar
     5    4    5 ar
     6    5    6 ar
     7    6    7 ar
     8    7    8 ar
     9    7   12 1
    10    8    9 ar
    11    9   10 1
    12   10   11 1
    13   12   18 1
    14   12   13 1
    15   13   14 1
    16   14   15 2
    17   14   16 1
    18   16   17 2
    19   16   27 1
    20   17   18 1
    21   17   26 1
    22   18   19 1
    23   19   24 ar
    24   19   20 ar
    25   20   21 ar
    26   21   22 ar
    27   22   23 ar
    28   23   24 ar
    29   23   25 1
    30   27   28 3
    31    1   29 1
    32    1   30 1
    33    1   31 1
    34    2   32 1
    35    2   33 1
    36    5   34 1
    37    6   35 1
    38    8   36 1
    39   11   37 1
    40   11   38 1
    41   11   39 1
    42   12   40 1
    43   13   41 1
    44   20   42 1
    45   21   43 1
    46   22   44 1
    47   24   45 1
    48   25   46 1
    49   25   47 1
    50   25   48 1
    51   26   49 1
@<TRIPOS>MOLECULE
ZINC00820531
 56 58 0 0 0
SMALL
NO_CHARGES


@<TRIPOS>ATOM
      1 C           1.384     4.645    -4.973  C    
      2 C           1.902     3.332    -5.347  C    
      3 C           1.172     2.195    -5.488  C    
      4 C           1.851     0.939    -5.893  C    
      5 C           3.267     1.100    -6.302  C    
      6 C           3.869     2.297    -6.087  C    
      7 N           3.187     3.309    -5.605  N    
      8 C           5.266     2.542    -6.444  C    
      9 C           6.154     1.252    -6.369  C    
     10 C           5.404     0.102    -7.128  C    
     11 C           3.967     0.050    -6.862  C    
     12 O           3.368    -0.912    -7.327  O    
     13 C           7.536     1.526    -7.047  C    
     14 C           6.404     0.854    -4.876  C    
     15 C           1.739    -0.076    -4.787  C    
     16 C           2.345     0.149    -3.532  C    
     17 C           2.192    -0.770    -2.485  C    
     18 C           1.436    -1.943    -2.669  C    
     19 C           0.823    -2.222    -3.921  C    
     20 C           0.997    -1.268    -4.962  C    
     21 N           0.081    -3.351    -4.148  N    
     22 O          -0.419    -3.606    -5.213  O    
     23 O          -0.154    -4.251    -3.235  O    
     24 O           1.311    -2.785    -1.613  O    
     25 C          -0.187     2.132    -5.201  C    
     26 O          -1.042     1.536    -6.074  O    
     27 O          -0.605     2.466    -3.951  O    
     28 C          -1.927     2.361    -3.399  C    
     29 C          -1.775     2.277    -1.858  C    
     30 C          -2.802     3.560    -3.837  C    
     31 H           1.841     4.966    -4.033  H    
     32 H           0.302     4.673    -4.847  H    
     33 H           1.635     5.376    -5.747  H    
     34 H           1.324     0.597    -6.791  H    
     35 H           3.652     4.112    -5.490  H    
     36 H           5.266     2.935    -7.462  H    
     37 H           5.693     3.313    -5.792  H    
     38 H           5.519     0.238    -8.211  H    
     39 H           5.852    -0.859    -6.872  H    
     40 H           7.408     1.801    -8.095  H    
     41 H           8.171     0.637    -7.005  H    
     42 H           8.058     2.344    -6.543  H    
     43 H           6.923     1.657    -4.346  H    
     44 H           7.021    -0.047    -4.810  H    
     45 H           5.466     0.657    -4.356  H    
     46 H           2.890     1.000    -3.367  H    
     47 H           2.624    -0.569    -1.579  H    
     48 H           0.556    -1.427    -5.872  H    
     49 H           1.861    -2.415    -0.889  H    
     50 H          -2.393     1.436    -3.746  H    
     51 H          -1.174     1.405    -1.589  H    
     52 H          -2.753     2.182    -1.382  H    
     53 H          -1.280     3.172    -1.476  H    
     54 H          -2.353     4.503    -3.513  H    
     55 H          -3.802     3.475    -3.402  H    
     56 H          -2.899     3.574    -4.925  H    
@<TRIPOS>BOND
     1    1    2 1
     2    2    7 1
     3    2    3 2
     4    3    4 1
     5    3   25 1
     6    4    5 1
     7    4   15 1
     8    5   11 1
     9    5    6 2
    10    6    7 1
    11    6    8 1
    12    8    9 1
    13    9   10 1
    14    9   13 1
    15    9   14 1
    16   10   11 1
    17   11   12 2
    18   15   20 ar
    19   15   16 ar
    20   16   17 ar
    21   17   18 ar
    22   18   19 ar
    23   18   24 1
    24   19   20 ar
    25   19   21 1
    26   21   22 2
    27   21   23 1
    28   25   26 2
    29   25   27 1
    30   27   28 1
    31   28   29 1
    32   28   30 1
    33    1   31 1
    34    1   32 1
    35    1   33 1
    36    4   34 1
    37    7   35 1
    38    8   36 1
    39    8   37 1
    40   10   38 1
    41   10   39 1
    42   13   40 1
    43   13   41 1
    44   13   42 1
    45   14   43 1
    46   14   44 1
    47   14   45 1
    48   16   46 1
    49   17   47 1
    50   20   48 1
    51   24   49 1
    52   28   50 1
    53   29   51 1
    54   29   52 1
    55   29   53 1
    56   30   54 1
    57   30   55 1
    58   30   56 1
@<TRIPOS>MOLECULE
ZINC00822778
 59 62 0 0 0
SMALL
NO_CHARGES


@<TRIPOS>ATOM
      1 C           3.621    -0.124    -7.629  C    
      2 C           4.239     0.987    -6.908  C    
      3 C           5.574     1.199    -6.764  C    
      4 C           6.037     2.308    -5.891  C    
      5 C           4.965     3.214    -5.405  C    
      6 C           3.672     2.862    -5.628  C    
      7 N           3.383     1.793    -6.328  N    
      8 C           2.549     3.655    -5.125  C    
      9 C           2.922     4.387    -3.801  C    
     10 C           4.272     5.148    -3.984  C    
     11 C           5.269     4.373    -4.715  C    
     12 O           6.386     4.874    -4.806  O    
     13 C           1.825     5.264    -3.273  C    
     14 C           1.325     6.355    -4.031  C    
     15 C           0.298     7.177    -3.525  C    
     16 C          -0.247     6.924    -2.254  C    
     17 C           0.236     5.848    -1.488  C    
     18 C           1.263     5.027    -1.993  C    
     19 C           6.848     1.787    -4.722  C    
     20 C           6.120     1.055    -3.742  C    
     21 C           6.709     0.624    -2.545  C    
     22 C           8.054     0.913    -2.298  C    
     23 C           8.808     1.596    -3.261  C    
     24 C           8.254     2.022    -4.505  C    
     25 N           9.121     2.587    -5.408  N    
     26 O           8.891     2.736    -6.578  O    
     27 O          10.367     2.862    -5.117  O    
     28 C           6.526     0.479    -7.481  C    
     29 O           6.417     0.377    -8.829  O    
     30 O           7.585    -0.077    -6.833  O    
     31 C           8.669    -0.854    -7.366  C    
     32 C           9.690    -1.078    -6.223  C    
     33 C           8.163    -2.204    -7.941  C    
     34 H           2.919    -0.645    -6.972  H    
     35 H           4.337    -0.867    -7.982  H    
     36 H           3.072     0.264    -8.493  H    
     37 H           6.613     2.952    -6.548  H    
     38 H           2.477     1.594    -6.436  H    
     39 H           2.277     4.376    -5.901  H    
     40 H           1.680     3.014    -4.936  H    
     41 H           3.119     3.596    -3.064  H    
     42 H           4.112     6.080    -4.534  H    
     43 H           4.670     5.400    -2.994  H    
     44 H           1.702     6.563    -4.959  H    
     45 H          -0.055     7.958    -4.085  H    
     46 H          -0.991     7.522    -1.885  H    
     47 H          -0.157     5.664    -0.562  H    
     48 H           1.595     4.253    -1.413  H    
     49 H           5.125     0.851    -3.880  H    
     50 H           6.155     0.117    -1.849  H    
     51 H           8.490     0.611    -1.422  H    
     52 H           9.794     1.751    -3.045  H    
     53 H           9.157    -0.283    -8.163  H    
     54 H          10.055    -0.119    -5.852  H    
     55 H          10.546    -1.654    -6.583  H    
     56 H           9.224    -1.612    -5.393  H    
     57 H           7.608    -2.757    -7.179  H    
     58 H           9.005    -2.813    -8.280  H    
     59 H           7.505    -2.031    -8.797  H    
@<TRIPOS>BOND
     1    1    2 1
     2    2    7 1
     3    2    3 2
     4    3    4 1
     5    3   28 1
     6    4    5 1
     7    4   19 1
     8    5   11 1
     9    5    6 2
    10    6    7 1
    11    6    8 1
    12    8    9 1
    13    9   10 1
    14    9   13 1
    15   10   11 1
    16   11   12 2
    17   13   18 ar
    18   13   14 ar
    19   14   15 ar
    20   15   16 ar
    21   16   17 ar
    22   17   18 ar
    23   19   24 ar
    24   19   20 ar
    25   20   21 ar
    26   21   22 ar
    27   22   23 ar
    28   23   24 ar
    29   24   25 1
    30   25   26 2
    31   25   27 1
    32   28   29 2
    33   28   30 1
    34   30   31 1
    35   31   32 1
    36   31   33 1
    37    1   34 1
    38    1   35 1
    39    1   36 1
    40    4   37 1
    41    7   38 1
    42    8   39 1
    43    8   40 1
    44    9   41 1
    45   10   42 1
    46   10   43 1
    47   14   44 1
    48   15   45 1
    49   16   46 1
    50   17   47 1
    51   18   48 1
    52   20   49 1
    53   21   50 1
    54   22   51 1
    55   23   52 1
    56   31   53 1
    57   32   54 1
    58   32   55 1
    59   32   56 1
    60   33   57 1
    61   33   58 1
    62   33   59 1
@<TRIPOS>MOLECULE
ZINC00825953
 42 44 0 0 0
SMALL
NO_CHARGES


@<TRIPOS>ATOM
      1 C          -3.650     8.148     3.793  C    
      2 C          -2.446     8.872     3.879  C    
      3 C          -1.217     8.188     3.958  C    
      4 C          -1.168     6.768     3.937  C    
      5 C          -2.394     6.060     3.840  C    
      6 C          -3.625     6.741     3.778  C    
      7 N           0.035     6.092     3.995  N    
      8 C           1.115     6.390     3.289  C    
      9 O           1.196     7.269     2.440  O    
     10 C           2.229     5.533     3.577  C    
     11 C           1.638     4.547     4.615  C    
     12 C           0.298     5.050     4.773  C    
     13 O          -0.465     4.583     5.611  O    
     14 S           1.614     2.821     4.052  S    
     15 C           3.306     2.478     4.255  C    
     16 N           4.136     2.619     3.204  N    
     17 N           3.731     2.041     5.459  N    
     18 N           4.944     1.766     5.705  N    
     19 C           5.388     1.311     6.821  C    
     20 C           6.737     1.031     7.043  C    
     21 C           7.735     1.270     6.061  C    
     22 C           9.091     0.981     6.317  C    
     23 C           9.472     0.445     7.560  C    
     24 C           8.500     0.205     8.550  C    
     25 C           7.144     0.493     8.290  C    
     26 Br         11.261     0.066     7.901  Br   
     27 H          -4.542     8.644     3.745  H    
     28 H          -2.464     9.894     3.892  H    
     29 H          -0.358     8.733     4.047  H    
     30 H          -2.397     5.039     3.789  H    
     31 H          -4.498     6.214     3.698  H    
     32 H           2.565     5.033     2.664  H    
     33 H           3.054     6.110     4.005  H    
     34 H           2.166     4.622     5.570  H    
     35 H           5.078     2.412     3.298  H    
     36 H           3.788     2.905     2.346  H    
     37 H           4.735     1.147     7.554  H    
     38 H           7.490     1.652     5.147  H    
     39 H           9.793     1.158     5.596  H    
     40 H           8.771    -0.188     9.454  H    
     41 H           6.459     0.304     9.027  H    
     42 H           3.082     1.932     6.170  H    
@<TRIPOS>BOND
     1    1    6 ar
     2    1    2 ar
     3    2    3 ar
     4    3    4 ar
     5    4    5 ar
     6    4    7 1
     7    5    6 ar
     8    7   12 1
     9    7    8 1
    10    8    9 2
    11    8   10 1
    12   10   11 1
    13   11   12 1
    14   11   14 1
    15   12   13 2
    16   14   15 1
    17   15   16 1
    18   15   17 2
    19   17   18 1
    20   18   19 2
    21   19   20 1
    22   20   25 ar
    23   20   21 ar
    24   21   22 ar
    25   22   23 ar
    26   23   24 ar
    27   23   26 1
    28   24   25 ar
    29    1   27 1
    30    2   28 1
    31    3   29 1
    32    5   30 1
    33    6   31 1
    34   10   32 1
    35   10   33 1
    36   11   34 1
    37   16   35 1
    38   16   36 1
    39   19   37 1
    40   21   38 1
    41   22   39 1
    42   24   40 1
    43   25   41 1
    44   17   42 1
@<TRIPOS>MOLECULE
ZINC00849122
 43 45 0 0 0
SMALL
NO_CHARGES


@<TRIPOS>ATOM
      1 C           5.268    -3.915    -3.564  C    
      2 N           4.352    -3.672    -2.456  N    
      3 C           3.111    -4.211    -2.470  C    
      4 O           2.786    -5.039    -3.316  O    
      5 C           2.064    -3.929    -1.493  C    
      6 C           2.272    -2.606    -0.713  C    
      7 S           3.896    -2.695     0.069  S    
      8 C           4.808    -2.895    -1.409  C    
      9 N           6.066    -2.372    -1.439  N    
     10 C           6.890    -1.566    -0.715  C    
     11 C           6.449    -0.580     0.198  C    
     12 C           7.373     0.230     0.883  C    
     13 C           8.752     0.073     0.655  C    
     14 C           9.204    -0.889    -0.267  C    
     15 C           8.275    -1.697    -0.951  C    
     16 F           9.608     0.830     1.284  F    
     17 C           1.268    -2.300     0.307  C    
     18 O           0.348    -3.079     0.516  O    
     19 N           1.349    -1.130     0.931  N    
     20 C           0.571    -0.586     1.919  C    
     21 C          -0.222    -1.317     2.839  C    
     22 C          -0.974    -0.652     3.826  C    
     23 C          -0.950     0.758     3.934  C    
     24 C          -0.138     1.482     3.031  C    
     25 C           0.618     0.819     2.048  C    
     26 C          -1.711     1.425     4.930  C    
     27 O          -1.703     2.771     5.056  O    
     28 O          -2.487     0.749     5.809  O    
     29 H           5.570    -2.964    -4.009  H    
     30 H           4.866    -4.525    -4.375  H    
     31 H           6.161    -4.426    -3.195  H    
     32 H           1.098    -3.862    -2.006  H    
     33 H           2.011    -4.769    -0.794  H    
     34 H           2.277    -1.777    -1.430  H    
     35 H           5.454    -0.413     0.348  H    
     36 H           7.038     0.941     1.538  H    
     37 H          10.205    -0.998    -0.446  H    
     38 H           8.622    -2.389    -1.620  H    
     39 H           2.063    -0.552     0.617  H    
     40 H          -0.240    -2.335     2.818  H    
     41 H          -1.537    -1.215     4.469  H    
     42 H          -0.085     2.504     3.079  H    
     43 H           1.197     1.372     1.413  H    
@<TRIPOS>BOND
     1    1    2 1
     2    2    8 1
     3    2    3 1
     4    3    4 2
     5    3    5 1
     6    5    6 1
     7    6    7 1
     8    6   17 1
     9    7    8 1
    10    8    9 2
    11    9   10 1
    12   10   15 ar
    13   10   11 ar
    14   11   12 ar
    15   12   13 ar
    16   13   14 ar
    17   13   16 1
    18   14   15 ar
    19   17   18 2
    20   17   19 1
    21   19   20 1
    22   20   25 ar
    23   20   21 ar
    24   21   22 ar
    25   22   23 ar
    26   23   24 ar
    27   23   26 1
    28   24   25 ar
    29   26   27 2
    30   26   28 1
    31    1   29 1
    32    1   30 1
    33    1   31 1
    34    5   32 1
    35    5   33 1
    36    6   34 1
    37   11   35 1
    38   12   36 1
    39   14   37 1
    40   15   38 1
    41   19   39 1
    42   21   40 1
    43   22   41 1
    44   24   42 1
    45   25   43 1
@<TRIPOS>MOLECULE
ZINC00851744
 51 54 0 0 0
SMALL
NO_CHARGES


@<TRIPOS>ATOM
      1 C           3.381     5.527    -3.418  C    
      2 C           3.191     4.168    -3.733  C    
      3 C           3.285     3.190    -2.727  C    
      4 C           3.561     3.545    -1.382  C    
      5 C           3.756     4.922    -1.087  C    
      6 C           3.667     5.901    -2.094  C    
      7 C           3.669     2.542    -0.373  C    
      8 C           3.297     2.751     0.978  C    
      9 C           3.481     1.736     1.951  C    
     10 C           4.010     0.477     1.543  C    
     11 C           4.189    -0.630     2.413  C    
     12 C           4.708    -1.849     1.937  C    
     13 C           5.058    -1.988     0.585  C    
     14 C           4.879    -0.913    -0.302  C    
     15 C           4.354     0.306     0.171  C    
     16 N           4.174     1.326    -0.706  N    
     17 C           3.167     2.042     3.271  C    
     18 O           2.054     2.476     3.533  O    
     19 N           4.117     1.969     4.192  N    
     20 C           3.989     2.307     5.573  C    
     21 C           3.152     1.279     6.381  C    
     22 C           3.019     0.210     8.638  C    
     23 C           3.336     0.434    10.138  C    
     24 O           2.628     1.580    10.647  O    
     25 C           2.903     2.798     9.923  C    
     26 C           2.575     2.631     8.418  C    
     27 N           3.316     1.456     7.859  N    
     28 H           3.316     6.238    -4.148  H    
     29 H           2.990     3.891    -4.697  H    
     30 H           3.134     2.211    -2.986  H    
     31 H           3.990     5.228    -0.139  H    
     32 H           3.817     6.887    -1.865  H    
     33 H           2.900     3.653     1.257  H    
     34 H           3.929    -0.572     3.401  H    
     35 H           4.829    -2.636     2.577  H    
     36 H           5.434    -2.876     0.241  H    
     37 H           5.132    -1.022    -1.284  H    
     38 H           4.997     1.691     3.893  H    
     39 H           4.998     2.335     5.993  H    
     40 H           3.568     3.312     5.662  H    
     41 H           2.096     1.342     6.099  H    
     42 H           3.505     0.285     6.090  H    
     43 H           3.638    -0.616     8.281  H    
     44 H           1.966    -0.073     8.524  H    
     45 H           3.029    -0.446    10.710  H    
     46 H           4.415     0.566    10.274  H    
     47 H           2.289     3.595    10.344  H    
     48 H           3.954     3.082    10.046  H    
     49 H           1.494     2.495     8.298  H    
     50 H           2.863     3.553     7.908  H    
     51 H           4.309     1.645     8.013  H    
@<TRIPOS>BOND
     1    1    6 ar
     2    1    2 ar
     3    2    3 ar
     4    3    4 ar
     5    4    5 ar
     6    4    7 1
     7    5    6 ar
     8    7   16 ar
     9    7    8 ar
    10    8    9 ar
    11    9   10 ar
    12    9   17 1
    13   10   15 ar
    14   10   11 ar
    15   11   12 ar
    16   12   13 ar
    17   13   14 ar
    18   14   15 ar
    19   15   16 ar
    20   17   18 2
    21   17   19 1
    22   19   20 1
    23   20   21 1
    24   21   27 1
    25   22   23 1
    26   22   27 1
    27   23   24 1
    28   24   25 1
    29   25   26 1
    30   26   27 1
    31    1   28 1
    32    2   29 1
    33    3   30 1
    34    5   31 1
    35    6   32 1
    36    8   33 1
    37   11   34 1
    38   12   35 1
    39   13   36 1
    40   14   37 1
    41   19   38 1
    42   20   39 1
    43   20   40 1
    44   21   41 1
    45   21   42 1
    46   22   43 1
    47   22   44 1
    48   23   45 1
    49   23   46 1
    50   25   47 1
    51   25   48 1
    52   26   49 1
    53   26   50 1
    54   27   51 1
@<TRIPOS>MOLECULE
ZINC00853398
 48 51 0 0 0
SMALL
NO_CHARGES


@<TRIPOS>ATOM
      1 C           5.362    -1.558     1.611  C    
      2 C           4.642    -2.746     1.831  C    
      3 C           5.288    -3.992     1.737  C    
      4 C           6.668    -4.069     1.429  C    
      5 C           7.377    -2.864     1.198  C    
      6 C           6.728    -1.619     1.287  C    
      7 C           7.356    -5.394     1.366  C    
      8 C           8.434    -5.534     2.339  C    
      9 C           9.569    -5.801     1.681  C    
     10 C           9.330    -5.850     0.370  C    
     11 O          10.191    -6.101    -0.463  O    
     12 N           8.048    -5.628     0.130  N    
     13 C           7.415    -5.653    -1.168  C    
     14 C           6.422    -6.834    -1.340  C    
     15 C           7.063    -8.230    -1.181  C    
     16 C           6.136    -9.140    -2.000  C    
     17 C           5.283    -8.152    -2.822  C    
     18 O           5.874    -6.852    -2.666  O    
     19 O          10.776    -5.992     2.215  O    
     20 C           8.314    -5.319     3.689  C    
     21 O           9.218    -4.695     4.242  O    
     22 C           7.138    -5.551     4.407  C    
     23 C           6.407    -6.757     4.258  C    
     24 C           5.216    -6.972     4.979  C    
     25 C           4.742    -5.989     5.867  C    
     26 C           5.461    -4.794     6.036  C    
     27 C           6.649    -4.576     5.315  C    
     28 H           4.891    -0.654     1.682  H    
     29 H           3.648    -2.704     2.067  H    
     30 H           4.746    -4.845     1.908  H    
     31 H           8.376    -2.887     0.966  H    
     32 H           7.255    -0.756     1.127  H    
     33 H           6.646    -6.213     1.521  H    
     34 H           6.873    -4.715    -1.313  H    
     35 H           8.158    -5.707    -1.965  H    
     36 H           5.604    -6.715    -0.620  H    
     37 H           8.072    -8.245    -1.608  H    
     38 H           7.111    -8.535    -0.130  H    
     39 H           6.716    -9.799    -2.656  H    
     40 H           5.503    -9.749    -1.349  H    
     41 H           5.268    -8.425    -3.880  H    
     42 H           4.251    -8.133    -2.452  H    
     43 H          10.632    -6.074     3.179  H    
     44 H           6.742    -7.498     3.633  H    
     45 H           4.700    -7.847     4.864  H    
     46 H           3.883    -6.151     6.397  H    
     47 H           5.121    -4.081     6.684  H    
     48 H           7.143    -3.687     5.441  H    
@<TRIPOS>BOND
     1    1    6 ar
     2    1    2 ar
     3    2    3 ar
     4    3    4 ar
     5    4    5 ar
     6    4    7 1
     7    5    6 ar
     8    7   12 1
     9    7    8 1
    10    8    9 2
    11    8   20 1
    12    9   10 1
    13    9   19 1
    14   10   11 2
    15   10   12 1
    16   12   13 1
    17   13   14 1
    18   14   18 1
    19   14   15 1
    20   15   16 1
    21   16   17 1
    22   17   18 1
    23   20   21 2
    24   20   22 1
    25   22   27 ar
    26   22   23 ar
    27   23   24 ar
    28   24   25 ar
    29   25   26 ar
    30   26   27 ar
    31    1   28 1
    32    2   29 1
    33    3   30 1
    34    5   31 1
    35    6   32 1
    36    7   33 1
    37   13   34 1
    38   13   35 1
    39   14   36 1
    40   15   37 1
    41   15   38 1
    42   16   39 1
    43   16   40 1
    44   17   41 1
    45   17   42 1
    46   19   43 1
    47   23   44 1
    48   24   45 1
    49   25   46 1
    50   26   47 1
    51   27   48 1
@<TRIPOS>MOLECULE
ZINC00855132
 51 54 0 0 0
SMALL
NO_CHARGES


@<TRIPOS>ATOM
      1 C           6.655    -4.223    -4.018  C    
      2 O           6.653    -3.413    -2.828  O    
      3 C           5.452    -2.814    -2.545  C    
      4 C           5.124    -1.624    -3.228  C    
      5 C           3.947    -0.924    -2.927  C    
      6 C           3.082    -1.381    -1.912  C    
      7 C           3.428    -2.564    -1.219  C    
      8 C           4.602    -3.305    -1.514  C    
      9 N           4.883    -4.441    -0.803  N    
     10 O           5.823    -5.149    -1.027  O    
     11 O           4.116    -4.869     0.168  O    
     12 C           1.861    -0.602    -1.549  C    
     13 N           1.786    -0.243    -0.163  N    
     14 C           0.597    -0.616     0.523  C    
     15 C          -0.472    -0.813    -0.558  C    
     16 S           0.386    -1.572    -1.944  S    
     17 S           2.977     0.653     0.637  S    
     18 O           3.603    -0.224     1.806  O    
     19 O           4.193     0.951    -0.344  O    
     20 C           2.442     2.220     1.175  C    
     21 C           2.876     2.742     2.410  C    
     22 C           2.454     4.019     2.827  C    
     23 C           1.589     4.801     2.021  C    
     24 C           1.159     4.262     0.784  C    
     25 C           1.583     2.987     0.363  C    
     26 C           1.169     6.100     2.442  C    
     27 C           2.096     7.025     2.985  C    
     28 C           1.682     8.304     3.405  C    
     29 C           0.334     8.680     3.285  C    
     30 C          -0.601     7.779     2.748  C    
     31 C          -0.186     6.498     2.331  C    
     32 H           5.862    -4.973    -3.994  H    
     33 H           7.612    -4.739    -4.071  H    
     34 H           6.554    -3.609    -4.916  H    
     35 H           5.748    -1.250    -3.945  H    
     36 H           3.740    -0.065    -3.442  H    
     37 H           2.802    -2.886    -0.479  H    
     38 H           1.795     0.323    -2.129  H    
     39 H           0.771    -1.552     1.061  H    
     40 H           0.269     0.146     1.235  H    
     41 H          -1.284    -1.456    -0.211  H    
     42 H          -0.880     0.153    -0.870  H    
     43 H           3.503     2.201     3.010  H    
     44 H           2.777     4.367     3.734  H    
     45 H           0.550     4.804     0.165  H    
     46 H           1.268     2.629    -0.541  H    
     47 H           3.086     6.782     3.069  H    
     48 H           2.361     8.959     3.797  H    
     49 H           0.033     9.608     3.591  H    
     50 H          -1.582     8.051     2.667  H    
     51 H          -0.890     5.854     1.961  H    
@<TRIPOS>BOND
     1    1    2 1
     2    2    3 1
     3    3    8 ar
     4    3    4 ar
     5    4    5 ar
     6    5    6 ar
     7    6    7 ar
     8    6   12 1
     9    7    8 ar
    10    8    9 1
    11    9   10 2
    12    9   11 1
    13   12   16 1
    14   12   13 1
    15   13   14 1
    16   13   17 1
    17   14   15 1
    18   15   16 1
    19   17   18 2
    20   17   19 2
    21   17   20 1
    22   20   25 ar
    23   20   21 ar
    24   21   22 ar
    25   22   23 ar
    26   23   24 ar
    27   23   26 1
    28   24   25 ar
    29   26   31 ar
    30   26   27 ar
    31   27   28 ar
    32   28   29 ar
    33   29   30 ar
    34   30   31 ar
    35    1   32 1
    36    1   33 1
    37    1   34 1
    38    4   35 1
    39    5   36 1
    40    7   37 1
    41   12   38 1
    42   14   39 1
    43   14   40 1
    44   15   41 1
    45   15   42 1
    46   21   43 1
    47   22   44 1
    48   24   45 1
    49   25   46 1
    50   27   47 1
    51   28   48 1
    52   29   49 1
    53   30   50 1
    54   31   51 1
@<TRIPOS>MOLECULE
ZINC00868045
 33 35 0 0 0
SMALL
NO_CHARGES


@<TRIPOS>ATOM
      1 C           5.215     9.358    12.974  C    
      2 C           4.706     8.952    11.728  C    
      3 C           3.521     9.525    11.201  C    
      4 C           2.865    10.523    11.969  C    
      5 C           3.374    10.930    13.216  C    
      6 C           4.550    10.347    13.718  C    
      7 Br          2.491    12.240    14.200  Br   
      8 C           3.045     9.100     9.964  C    
      9 N           1.979     9.583     9.439  N    
     10 N           1.498     9.236     8.318  N    
     11 C           0.394     9.758     7.808  C    
     12 O          -0.229    10.623     8.410  O    
     13 C          -0.077     9.334     6.581  C    
     14 C           0.466     8.375     5.735  C    
     15 C          -0.370     8.308     4.627  C    
     16 N          -1.361     9.196     4.823  N    
     17 N          -1.181     9.787     5.962  N    
     18 C          -0.236     7.481     3.498  C    
     19 C           0.766     6.538     3.228  C    
     20 C           0.628     5.860     2.005  C    
     21 C          -0.488     6.241     1.259  C    
     22 S          -1.315     7.451     2.156  S    
     23 Br         -1.007     5.580    -0.396  Br   
     24 H           6.071     8.934    13.339  H    
     25 H           5.212     8.229    11.208  H    
     26 H           2.006    10.964    11.627  H    
     27 H           4.922    10.640    14.623  H    
     28 H           3.547     8.396     9.468  H    
     29 H           1.963     8.552     7.810  H    
     30 H           1.313     7.826     5.896  H    
     31 H          -1.769    10.470     6.323  H    
     32 H           1.543     6.348     3.865  H    
     33 H           1.291     5.149     1.690  H    
@<TRIPOS>BOND
     1    1    6 ar
     2    1    2 ar
     3    2    3 ar
     4    3    4 ar
     5    3    8 1
     6    4    5 ar
     7    5    6 ar
     8    5    7 1
     9    8    9 2
    10    9   10 1
    11   10   11 1
    12   11   12 2
    13   11   13 1
    14   13   17 1
    15   13   14 2
    16   14   15 1
    17   15   16 2
    18   15   18 1
    19   16   17 1
    20   18   22 1
    21   18   19 2
    22   19   20 1
    23   20   21 2
    24   21   22 1
    25   21   23 1
    26    1   24 1
    27    2   25 1
    28    4   26 1
    29    6   27 1
    30    8   28 1
    31   10   29 1
    32   14   30 1
    33   17   31 1
    34   19   32 1
    35   20   33 1
@<TRIPOS>MOLECULE
ZINC00872194
 63 66 0 0 0
SMALL
NO_CHARGES


@<TRIPOS>ATOM
      1 C          11.176   -10.218     2.975  C    
      2 O           9.760   -10.058     2.755  O    
      3 C           9.445    -8.895     2.110  C    
      4 C           9.538    -8.799     0.704  C    
      5 C           9.188    -7.602     0.055  C    
      6 C           8.729    -6.494     0.800  C    
      7 C           8.596    -6.608     2.201  C    
      8 C           8.952    -7.802     2.851  C    
      9 S           8.301    -5.008     0.000  S    
     10 O           9.189    -4.776    -1.301  O    
     11 O           8.702    -3.771     0.916  O    
     12 N           6.666    -4.909    -0.434  N    
     13 C           6.169    -5.712    -1.517  C    
     14 C           5.326    -6.890    -0.957  C    
     15 C           4.861    -5.567     1.069  C    
     16 C           5.696    -4.396     0.492  C    
     17 C           3.296    -7.459     0.525  C    
     18 C           3.051    -8.716    -0.373  C    
     19 C           1.992    -9.679     0.223  C    
     20 C           0.863    -7.802     1.359  C    
     21 C           1.909    -6.798     0.806  C    
     22 C          -0.398    -9.916     0.881  C    
     23 C          -1.753    -9.328     0.703  C    
     24 C          -2.214    -8.990    -0.593  C    
     25 C          -3.494    -8.438    -0.779  C    
     26 C          -4.331    -8.212     0.329  C    
     27 C          -3.881    -8.530     1.624  C    
     28 C          -2.604    -9.089     1.810  C    
     29 N           4.251    -6.413    -0.019  N    
     30 N           0.691    -8.980     0.449  N    
     31 H          11.724   -10.264     2.027  H    
     32 H          11.333   -11.158     3.505  H    
     33 H          11.583    -9.408     3.589  H    
     34 H           9.864    -9.600     0.158  H    
     35 H           9.267    -7.543    -0.963  H    
     36 H           8.246    -5.823     2.754  H    
     37 H           8.858    -7.873     3.868  H    
     38 H           5.537    -5.092    -2.158  H    
     39 H           6.972    -6.106    -2.145  H    
     40 H           4.886    -7.394    -1.819  H    
     41 H           5.986    -7.598    -0.445  H    
     42 H           5.506    -6.181     1.706  H    
     43 H           4.094    -5.127     1.705  H    
     44 H           6.157    -3.843     1.313  H    
     45 H           5.033    -3.704    -0.033  H    
     46 H           3.694    -7.840     1.472  H    
     47 H           2.713    -8.395    -1.362  H    
     48 H           3.981    -9.275    -0.490  H    
     49 H           1.856   -10.499    -0.488  H    
     50 H           2.368   -10.103     1.160  H    
     51 H           1.175    -8.137     2.354  H    
     52 H          -0.085    -7.270     1.466  H    
     53 H           2.003    -5.990     1.533  H    
     54 H           1.524    -6.367    -0.122  H    
     55 H          -0.230   -10.220     1.920  H    
     56 H          -0.376   -10.830     0.279  H    
     57 H          -1.619    -9.148    -1.411  H    
     58 H          -3.816    -8.197    -1.720  H    
     59 H          -5.264    -7.815     0.196  H    
     60 H          -4.486    -8.355     2.430  H    
     61 H          -2.296    -9.312     2.760  H    
     62 H           3.674    -5.783    -0.578  H    
     63 H           0.407    -8.609    -0.460  H    
@<TRIPOS>BOND
     1    1    2 1
     2    2    3 1
     3    3    8 ar
     4    3    4 ar
     5    4    5 ar
     6    5    6 ar
     7    6    7 ar
     8    6    9 1
     9    7    8 ar
    10    9   10 2
    11    9   11 2
    12    9   12 1
    13   12   16 1
    14   12   13 1
    15   13   14 1
    16   14   29 1
    17   15   16 1
    18   15   29 1
    19   17   21 1
    20   17   18 1
    21   17   29 1
    22   18   19 1
    23   19   30 1
    24   20   21 1
    25   20   30 1
    26   22   23 1
    27   22   30 1
    28   23   28 ar
    29   23   24 ar
    30   24   25 ar
    31   25   26 ar
    32   26   27 ar
    33   27   28 ar
    34    1   31 1
    35    1   32 1
    36    1   33 1
    37    4   34 1
    38    5   35 1
    39    7   36 1
    40    8   37 1
    41   13   38 1
    42   13   39 1
    43   14   40 1
    44   14   41 1
    45   15   42 1
    46   15   43 1
    47   16   44 1
    48   16   45 1
    49   17   46 1
    50   18   47 1
    51   18   48 1
    52   19   49 1
    53   19   50 1
    54   20   51 1
    55   20   52 1
    56   21   53 1
    57   21   54 1
    58   22   55 1
    59   22   56 1
    60   24   57 1
    61   25   58 1
    62   26   59 1
    63   27   60 1
    64   28   61 1
    65   29   62 1
    66   30   63 1
@<TRIPOS>MOLECULE
ZINC00879735
 58 61 0 0 0
SMALL
NO_CHARGES


@<TRIPOS>ATOM
      1 C           4.366     8.361    10.021  C    
      2 C           3.186     7.839     9.296  C    
      3 C           3.272     7.428     7.946  C    
      4 C           2.136     6.946     7.269  C    
      5 C           0.893     6.855     7.931  C    
      6 C           0.800     7.270     9.273  C    
      7 C           1.937     7.755     9.951  C    
      8 S          -0.517     6.281     7.082  S    
      9 O          -0.070     5.356     5.866  O    
     10 O          -1.407     5.447     8.107  O    
     11 C          -2.610     7.589     5.918  C    
     12 C          -3.284     6.412     5.513  C    
     13 C          -4.545     6.483     4.889  C    
     14 C          -5.166     7.735     4.690  C    
     15 C          -4.511     8.902     5.097  C    
     16 C          -3.226     8.837     5.680  C    
     17 C          -5.332     9.984     4.765  C    
     18 C          -6.450     9.429     4.108  C    
     19 N          -6.345     8.072     4.116  N    
     20 S          -7.477     6.987     3.465  S    
     21 O          -7.357     5.520     4.065  O    
     22 O          -8.931     7.367     3.982  O    
     23 C          -7.408     6.855     1.730  C    
     24 C          -6.160     6.874     1.078  C    
     25 C          -6.088     6.768    -0.323  C    
     26 C          -7.263     6.639    -1.098  C    
     27 C          -8.513     6.624    -0.438  C    
     28 C          -8.585     6.728     0.964  C    
     29 C          -7.161     6.521    -2.572  C    
     30 C          -7.555    10.231     3.522  C    
     31 C          -5.099    11.335     5.031  C    
     32 O          -5.556    12.181     4.273  O    
     33 C          -4.553    11.823     6.293  C    
     34 N          -1.388     7.613     6.523  N    
     35 H           4.169     9.383    10.354  H    
     36 H           5.259     8.374     9.393  H    
     37 H           4.570     7.738    10.892  H    
     38 H           4.161     7.479     7.442  H    
     39 H           2.221     6.669     6.290  H    
     40 H          -0.093     7.230     9.769  H    
     41 H           1.845     8.050    10.926  H    
     42 H          -2.854     5.494     5.648  H    
     43 H          -4.975     5.619     4.572  H    
     44 H          -2.724     9.691     5.910  H    
     45 H          -5.296     6.966     1.614  H    
     46 H          -5.172     6.783    -0.778  H    
     47 H          -9.379     6.535    -0.977  H    
     48 H          -9.502     6.713     1.415  H    
     49 H          -6.663     7.403    -2.978  H    
     50 H          -8.140     6.434    -3.046  H    
     51 H          -6.577     5.635    -2.832  H    
     52 H          -8.025    10.830     4.302  H    
     53 H          -8.324     9.620     3.058  H    
     54 H          -7.161    10.891     2.752  H    
     55 H          -4.989    11.274     7.134  H    
     56 H          -4.761    12.893     6.443  H    
     57 H          -3.468    11.715     6.314  H    
     58 H          -1.002     8.487     6.696  H    
@<TRIPOS>BOND
     1    1    2 1
     2    2    7 ar
     3    2    3 ar
     4    3    4 ar
     5    4    5 ar
     6    5    6 ar
     7    5    8 1
     8    6    7 ar
     9    8    9 2
    10    8   10 2
    11    8   34 1
    12   11   16 ar
    13   11   12 ar
    14   11   34 1
    15   12   13 ar
    16   13   14 ar
    17   14   19 1
    18   14   15 ar
    19   15   16 ar
    20   15   17 1
    21   17   18 2
    22   17   31 1
    23   18   19 1
    24   18   30 1
    25   19   20 1
    26   20   21 2
    27   20   22 2
    28   20   23 1
    29   23   28 ar
    30   23   24 ar
    31   24   25 ar
    32   25   26 ar
    33   26   27 ar
    34   26   29 1
    35   27   28 ar
    36   31   32 2
    37   31   33 1
    38    1   35 1
    39    1   36 1
    40    1   37 1
    41    3   38 1
    42    4   39 1
    43    6   40 1
    44    7   41 1
    45   12   42 1
    46   13   43 1
    47   16   44 1
    48   24   45 1
    49   25   46 1
    50   27   47 1
    51   28   48 1
    52   29   49 1
    53   29   50 1
    54   29   51 1
    55   30   52 1
    56   30   53 1
    57   30   54 1
    58   33   55 1
    59   33   56 1
    60   33   57 1
    61   34   58 1
@<TRIPOS>MOLECULE
ZINC00905423
 39 41 0 0 0
SMALL
NO_CHARGES


@<TRIPOS>ATOM
      1 C           5.376    -1.928     1.755  C    
      2 C           5.753    -2.720     2.957  C    
      3 C           6.690    -3.773     2.826  C    
      4 C           7.062    -4.551     3.936  C    
      5 C           6.511    -4.276     5.197  C    
      6 C           5.588    -3.230     5.346  C    
      7 C           5.173    -2.456     4.231  C    
      8 N           4.271    -1.427     4.344  N    
      9 C           3.260    -1.264     5.191  C    
     10 O           2.949    -2.114     6.020  O    
     11 C           2.428    -0.087     5.094  C    
     12 S           2.588     0.899     6.605  S    
     13 C           1.445     2.136     6.172  C    
     14 N           0.131     1.899     6.079  N    
     15 N          -0.452     3.013     5.785  N    
     16 C           0.464     3.994     5.686  C    
     17 N           1.675     3.445     5.946  N    
     18 C           2.972     4.055     6.041  C    
     19 C           0.069     5.309     5.343  C    
     20 C          -1.232     5.825     5.460  C    
     21 C          -1.395     7.151     5.024  C    
     22 C          -0.233     7.736     4.518  C    
     23 S           1.015     6.562     4.630  S    
     24 H           4.302    -2.011     1.586  H    
     25 H           5.885    -2.273     0.848  H    
     26 H           5.635    -0.882     1.906  H    
     27 H           7.112    -3.988     1.920  H    
     28 H           7.735    -5.312     3.830  H    
     29 H           6.791    -4.831     6.011  H    
     30 H           5.242    -3.025     6.285  H    
     31 H           4.341    -0.744     3.661  H    
     32 H           2.717     0.538     4.243  H    
     33 H           1.388    -0.394     4.951  H    
     34 H           3.417     3.830     7.012  H    
     35 H           2.941     5.135     5.944  H    
     36 H           3.621     3.658     5.257  H    
     37 H          -2.010     5.286     5.840  H    
     38 H          -2.290     7.641     5.064  H    
     39 H          -0.137     8.680     4.143  H    
@<TRIPOS>BOND
     1    1    2 1
     2    2    7 ar
     3    2    3 ar
     4    3    4 ar
     5    4    5 ar
     6    5    6 ar
     7    6    7 ar
     8    7    8 1
     9    8    9 1
    10    9   10 2
    11    9   11 1
    12   11   12 1
    13   12   13 1
    14   13   17 1
    15   13   14 2
    16   14   15 1
    17   15   16 2
    18   16   17 1
    19   16   19 1
    20   17   18 1
    21   19   23 1
    22   19   20 2
    23   20   21 1
    24   21   22 2
    25   22   23 1
    26    1   24 1
    27    1   25 1
    28    1   26 1
    29    3   27 1
    30    4   28 1
    31    5   29 1
    32    6   30 1
    33    8   31 1
    34   11   32 1
    35   11   33 1
    36   18   34 1
    37   18   35 1
    38   18   36 1
    39   20   37 1
    40   21   38 1
    41   22   39 1
@<TRIPOS>MOLECULE
ZINC00908797
 51 53 0 0 0
SMALL
NO_CHARGES


@<TRIPOS>ATOM
      1 C          -0.176    -6.595    -1.153  C    
      2 C           0.808    -5.519    -0.900  C    
      3 C           0.451    -4.334    -0.224  C    
      4 C           1.395    -3.313    -0.021  C    
      5 C           2.728    -3.449    -0.490  C    
      6 C           3.109    -4.655    -1.141  C    
      7 C           2.142    -5.669    -1.345  C    
      8 C           4.499    -4.860    -1.636  C    
      9 N           3.671    -2.473    -0.302  N    
     10 C           3.522    -1.152    -0.319  C    
     11 O           2.456    -0.597    -0.557  O    
     12 C           4.623    -0.370    -0.170  C    
     13 C           5.326     0.107    -1.231  C    
     14 N           6.417     0.871    -1.027  N    
     15 C           6.886     1.181     0.172  C    
     16 O           7.895     1.860     0.274  O    
     17 N           6.269     0.751     1.259  N    
     18 C           5.075    -0.051     1.204  C    
     19 C           4.023     0.644     2.012  C    
     20 C           3.480     1.878     1.578  C    
     21 C           2.468     2.518     2.315  C    
     22 C           1.985     1.939     3.504  C    
     23 C           2.514     0.715     3.961  C    
     24 C           3.541     0.084     3.220  C    
     25 O           2.068     0.235     5.167  O    
     26 C           1.444    -1.067     5.137  C    
     27 O           1.011     2.562     4.218  O    
     28 C           4.975    -0.163    -2.621  C    
     29 H          -0.255    -6.770    -2.230  H    
     30 H          -1.171    -6.337    -0.778  H    
     31 H           0.151    -7.518    -0.665  H    
     32 H          -0.501    -4.205     0.128  H    
     33 H           1.103    -2.481     0.494  H    
     34 H           2.405    -6.530    -1.833  H    
     35 H           4.762    -4.060    -2.334  H    
     36 H           4.623    -5.812    -2.155  H    
     37 H           5.194    -4.842    -0.793  H    
     38 H           4.588    -2.786    -0.234  H    
     39 H           6.898     1.201    -1.801  H    
     40 H           6.640     0.982     2.127  H    
     41 H           5.342    -1.003     1.678  H    
     42 H           3.814     2.310     0.713  H    
     43 H           2.088     3.406     1.982  H    
     44 H           3.940    -0.788     3.567  H    
     45 H           0.690    -1.145     4.343  H    
     46 H           0.950    -1.225     6.095  H    
     47 H           2.194    -1.856     5.014  H    
     48 H           0.827     3.398     3.740  H    
     49 H           4.975    -1.238    -2.805  H    
     50 H           5.674     0.294    -3.324  H    
     51 H           3.977     0.233    -2.832  H    
@<TRIPOS>BOND
     1    1    2 1
     2    2    7 ar
     3    2    3 ar
     4    3    4 ar
     5    4    5 ar
     6    5    6 ar
     7    5    9 1
     8    6    7 ar
     9    6    8 1
    10    9   10 1
    11   10   11 2
    12   10   12 1
    13   12   18 1
    14   12   13 2
    15   13   14 1
    16   13   28 1
    17   14   15 1
    18   15   16 2
    19   15   17 1
    20   17   18 1
    21   18   19 1
    22   19   24 ar
    23   19   20 ar
    24   20   21 ar
    25   21   22 ar
    26   22   23 ar
    27   22   27 1
    28   23   24 ar
    29   23   25 1
    30   25   26 1
    31    1   29 1
    32    1   30 1
    33    1   31 1
    34    3   32 1
    35    4   33 1
    36    7   34 1
    37    8   35 1
    38    8   36 1
    39    8   37 1
    40    9   38 1
    41   14   39 1
    42   17   40 1
    43   18   41 1
    44   20   42 1
    45   21   43 1
    46   24   44 1
    47   26   45 1
    48   26   46 1
    49   26   47 1
    50   27   48 1
    51   28   49 1
    52   28   50 1
    53   28   51 1
@<TRIPOS>MOLECULE
ZINC00908863
 73 78 0 0 0
SMALL
NO_CHARGES


@<TRIPOS>ATOM
      1 C          -0.972    -0.199     7.221  C    
      2 C          -0.796    -0.898     5.928  C    
      3 C          -1.653    -0.630     4.833  C    
      4 C          -1.466    -1.285     3.601  C    
      5 C          -0.413    -2.208     3.442  C    
      6 C          -0.165    -2.884     2.245  C    
      7 C           0.870    -3.750     2.103  C    
      8 C           1.676    -3.994     3.211  C    
      9 O           2.608    -4.784     3.190  O    
     10 N           1.460    -3.379     4.372  N    
     11 C           0.443    -2.483     4.539  C    
     12 C           0.246    -1.839     5.776  C    
     13 C           1.105    -4.442     0.814  C    
     14 C           0.997    -3.534    -0.365  C    
     15 N           0.095    -3.623    -1.346  N    
     16 N           0.314    -2.671    -2.142  N    
     17 N           1.269    -2.000    -1.767  N    
     18 N           1.749    -2.466    -0.695  N    
     19 C           2.914    -1.929    -0.048  C    
     20 C           4.088    -2.839    -0.163  C    
     21 C           4.738    -3.345     0.989  C    
     22 C           5.832    -4.221     0.867  C    
     23 C           6.300    -4.589    -0.409  C    
     24 C           5.678    -4.074    -1.563  C    
     25 C           4.578    -3.202    -1.441  C    
     26 F           7.313    -5.407    -0.526  F    
     27 C          -1.160    -5.649     0.845  C    
     28 C          -1.839    -6.971     0.394  C    
     29 N          -1.233    -8.092     1.079  N    
     30 C           0.201    -8.208     0.954  C    
     31 C           0.897    -6.895     1.388  C    
     32 C          -1.980    -9.149     1.533  C    
     33 C          -2.916    -9.743     0.646  C    
     34 C          -3.692   -10.861     1.015  C    
     35 C          -3.534   -11.394     2.310  C    
     36 C          -2.645   -10.799     3.222  C    
     37 C          -1.869    -9.673     2.857  C    
     38 C          -1.080    -8.982     3.915  C    
     39 C          -4.644   -11.446     0.040  C    
     40 N           0.326    -5.725     0.640  N    
     41 H          -1.167    -0.925     8.014  H    
     42 H          -1.804     0.508     7.192  H    
     43 H          -0.065     0.357     7.468  H    
     44 H          -2.420     0.044     4.924  H    
     45 H          -2.100    -1.083     2.824  H    
     46 H          -0.771    -2.706     1.475  H    
     47 H           2.039    -3.582     5.123  H    
     48 H           0.870    -2.047     6.563  H    
     49 H           2.157    -4.728     0.762  H    
     50 H           3.190    -0.973    -0.502  H    
     51 H           2.669    -1.717     0.995  H    
     52 H           4.415    -3.080     1.925  H    
     53 H           6.286    -4.587     1.707  H    
     54 H           6.020    -4.330    -2.491  H    
     55 H           4.134    -2.838    -2.289  H    
     56 H          -1.590    -4.832     0.264  H    
     57 H          -1.398    -5.475     1.899  H    
     58 H          -2.907    -6.900     0.610  H    
     59 H          -1.720    -7.086    -0.685  H    
     60 H           0.618    -9.046     1.519  H    
     61 H           0.438    -8.393    -0.097  H    
     62 H           0.779    -6.760     2.466  H    
     63 H           1.962    -6.998     1.172  H    
     64 H          -3.009    -9.373    -0.306  H    
     65 H          -4.083   -12.207     2.609  H    
     66 H          -2.585   -11.189     4.165  H    
     67 H          -0.012    -9.070     3.729  H    
     68 H          -1.269    -9.396     4.906  H    
     69 H          -1.350    -7.925     3.948  H    
     70 H          -5.380   -10.694    -0.256  H    
     71 H          -5.181   -12.301     0.452  H    
     72 H          -4.104   -11.779    -0.850  H    
     73 H           0.444    -5.963    -0.346  H    
@<TRIPOS>BOND
     1    1    2 1
     2    2   12 ar
     3    2    3 ar
     4    3    4 ar
     5    4    5 ar
     6    5   11 ar
     7    5    6 1
     8    6    7 2
     9    7    8 1
    10    7   13 1
    11    8    9 2
    12    8   10 1
    13   10   11 1
    14   11   12 ar
    15   13   14 1
    16   13   40 1
    17   14   18 1
    18   14   15 2
    19   15   16 1
    20   16   17 2
    21   17   18 1
    22   18   19 1
    23   19   20 1
    24   20   25 ar
    25   20   21 ar
    26   21   22 ar
    27   22   23 ar
    28   23   24 ar
    29   23   26 1
    30   24   25 ar
    31   27   28 1
    32   27   40 1
    33   28   29 1
    34   29   30 1
    35   29   32 1
    36   30   31 1
    37   31   40 1
    38   32   37 ar
    39   32   33 ar
    40   33   34 ar
    41   34   35 ar
    42   34   39 1
    43   35   36 ar
    44   36   37 ar
    45   37   38 1
    46    1   41 1
    47    1   42 1
    48    1   43 1
    49    3   44 1
    50    4   45 1
    51    6   46 1
    52   10   47 1
    53   12   48 1
    54   13   49 1
    55   19   50 1
    56   19   51 1
    57   21   52 1
    58   22   53 1
    59   24   54 1
    60   25   55 1
    61   27   56 1
    62   27   57 1
    63   28   58 1
    64   28   59 1
    65   30   60 1
    66   30   61 1
    67   31   62 1
    68   31   63 1
    69   33   64 1
    70   35   65 1
    71   36   66 1
    72   38   67 1
    73   38   68 1
    74   38   69 1
    75   39   70 1
    76   39   71 1
    77   39   72 1
    78   40   73 1
@<TRIPOS>MOLECULE
ZINC00915820
 42 44 0 0 0
SMALL
NO_CHARGES


@<TRIPOS>ATOM
      1 C           1.691     7.985     7.434  C    
      2 C           0.775     6.946     7.390  C    
      3 C          -0.338     7.402     6.676  C    
      4 O          -0.100     8.686     6.296  O    
      5 C           1.120     9.053     6.751  C    
      6 C          -1.489     6.700     6.376  C    
      7 O          -1.631     5.570     6.827  O    
      8 N          -2.431     7.293     5.650  N    
      9 C          -3.628     6.830     5.250  C    
     10 C          -3.936     5.576     4.845  C    
     11 C          -3.048     4.563     4.483  C    
     12 C          -1.844     4.819     3.776  C    
     13 C          -0.975     3.767     3.424  C    
     14 C          -1.302     2.438     3.767  C    
     15 C          -2.506     2.163     4.441  C    
     16 C          -3.375     3.214     4.788  C    
     17 Br         -0.151     1.047     3.317  Br   
     18 C          -4.602     7.779     5.237  C    
     19 O          -5.325     7.761     6.226  O    
     20 N          -4.769     8.698     4.263  N    
     21 C          -3.941     8.769     3.067  C    
     22 C          -3.268    10.164     2.991  C    
     23 O          -4.253    11.212     3.083  O    
     24 C          -5.081    11.127     4.260  C    
     25 C          -5.776     9.745     4.351  C    
     26 H           2.609     7.970     7.880  H    
     27 H           0.903     6.017     7.800  H    
     28 H           1.552     9.969     6.610  H    
     29 H          -2.282     8.238     5.481  H    
     30 H          -4.902     5.346     4.748  H    
     31 H          -1.593     5.772     3.496  H    
     32 H          -0.107     3.966     2.921  H    
     33 H          -2.748     1.197     4.684  H    
     34 H          -4.244     2.987     5.283  H    
     35 H          -3.158     8.010     3.017  H    
     36 H          -4.572     8.629     2.184  H    
     37 H          -2.530    10.270     3.793  H    
     38 H          -2.746    10.267     2.036  H    
     39 H          -4.477    11.301     5.158  H    
     40 H          -5.836    11.914     4.204  H    
     41 H          -6.479     9.639     3.519  H    
     42 H          -6.368     9.724     5.269  H    
@<TRIPOS>BOND
     1    1    5 2
     2    1    2 1
     3    2    3 2
     4    3    4 1
     5    3    6 1
     6    4    5 1
     7    6    7 2
     8    6    8 1
     9    8    9 1
    10    9   10 2
    11    9   18 1
    12   10   11 1
    13   11   16 ar
    14   11   12 ar
    15   12   13 ar
    16   13   14 ar
    17   14   15 ar
    18   14   17 1
    19   15   16 ar
    20   18   19 2
    21   18   20 1
    22   20   25 1
    23   20   21 1
    24   21   22 1
    25   22   23 1
    26   23   24 1
    27   24   25 1
    28    1   26 1
    29    2   27 1
    30    5   28 1
    31    8   29 1
    32   10   30 1
    33   12   31 1
    34   13   32 1
    35   15   33 1
    36   16   34 1
    37   21   35 1
    38   21   36 1
    39   22   37 1
    40   22   38 1
    41   24   39 1
    42   24   40 1
    43   25   41 1
    44   25   42 1
@<TRIPOS>MOLECULE
ZINC00936309
 41 42 0 0 0
SMALL
NO_CHARGES


@<TRIPOS>ATOM
      1 C           3.604   -12.384    -3.135  C    
      2 O           3.795   -11.030    -3.567  O    
      3 C           3.989   -10.157    -2.532  C    
      4 C           5.295    -9.795    -2.159  C    
      5 C           5.503    -8.888    -1.106  C    
      6 C           4.412    -8.303    -0.405  C    
      7 C           3.096    -8.624    -0.840  C    
      8 C           2.895    -9.557    -1.880  C    
      9 O           1.988    -8.118    -0.208  O    
     10 C           1.384    -7.014    -0.903  C    
     11 C           4.604    -7.412     0.662  C    
     12 C           5.695    -7.334     1.451  C    
     13 C           5.821    -6.467     2.485  C    
     14 O           5.485    -5.300     2.326  O    
     15 N           6.261    -6.937     3.646  N    
     16 C           6.467    -6.294     4.838  C    
     17 C           6.755    -4.917     4.978  C    
     18 C           6.962    -4.352     6.248  C    
     19 C           6.890    -5.156     7.397  C    
     20 C           6.624    -6.542     7.295  C    
     21 C           6.425    -7.089     6.004  C    
     22 C           6.545    -7.427     8.491  C    
     23 F           5.303    -8.009     8.564  F    
     24 F           7.486    -8.422     8.402  F    
     25 F           6.756    -6.789     9.691  F    
     26 H           4.451   -12.738    -2.545  H    
     27 H           3.514   -13.015    -4.019  H    
     28 H           2.688   -12.484    -2.552  H    
     29 H           6.096   -10.200    -2.649  H    
     30 H           6.469    -8.648    -0.876  H    
     31 H           1.943    -9.808    -2.160  H    
     32 H           2.092    -6.192    -1.041  H    
     33 H           0.550    -6.651    -0.302  H    
     34 H           0.991    -7.325    -1.875  H    
     35 H           3.841    -6.813     0.893  H    
     36 H           6.431    -7.990     1.327  H    
     37 H           6.397    -7.898     3.672  H    
     38 H           6.841    -4.314     4.162  H    
     39 H           7.172    -3.355     6.337  H    
     40 H           7.043    -4.717     8.308  H    
     41 H           6.233    -8.091     5.914  H    
@<TRIPOS>BOND
     1    1    2 1
     2    2    3 1
     3    3    8 ar
     4    3    4 ar
     5    4    5 ar
     6    5    6 ar
     7    6    7 ar
     8    6   11 1
     9    7    8 ar
    10    7    9 1
    11    9   10 1
    12   11   12 2
    13   12   13 1
    14   13   14 2
    15   13   15 1
    16   15   16 1
    17   16   21 ar
    18   16   17 ar
    19   17   18 ar
    20   18   19 ar
    21   19   20 ar
    22   20   21 ar
    23   20   22 1
    24   22   23 1
    25   22   24 1
    26   22   25 1
    27    1   26 1
    28    1   27 1
    29    1   28 1
    30    4   29 1
    31    5   30 1
    32    8   31 1
    33   10   32 1
    34   10   33 1
    35   10   34 1
    36   11   35 1
    37   12   36 1
    38   15   37 1
    39   17   38 1
    40   18   39 1
    41   19   40 1
    42   21   41 1
@<TRIPOS>MOLECULE
ZINC00950360
 39 41 0 0 0
SMALL
NO_CHARGES


@<TRIPOS>ATOM
      1 C           1.760    -9.240    -4.202  C    
      2 C           2.502    -9.271    -3.006  C    
      3 C           3.465    -8.276    -2.746  C    
      4 C           3.694    -7.235    -3.678  C    
      5 C           2.936    -7.209    -4.874  C    
      6 C           1.977    -8.208    -5.134  C    
      7 C           4.695    -6.174    -3.394  C    
      8 C           4.032    -4.908    -2.782  C    
      9 C           4.928    -3.804    -2.458  C    
     10 O           6.128    -3.885    -2.708  O    
     11 N           4.411    -2.722    -1.887  N    
     12 C           5.040    -1.584    -1.495  C    
     13 N           4.363    -0.551    -0.942  N    
     14 C           5.115     0.530    -0.602  C    
     15 C           4.625     1.713    -0.025  C    
     16 C           5.519     2.761     0.277  C    
     17 C           6.903     2.630     0.003  C    
     18 C           7.393     1.438    -0.575  C    
     19 C           6.484     0.409    -0.872  C    
     20 S           6.705    -1.141    -1.573  S    
     21 S           8.012     3.915     0.396  S    
     22 O           9.026     4.094    -0.817  O    
     23 O           7.243     5.280     0.671  O    
     24 N           8.895     3.502     1.766  N    
     25 H           1.060    -9.964    -4.389  H    
     26 H           2.343   -10.018    -2.327  H    
     27 H           3.986    -8.310    -1.868  H    
     28 H           3.073    -6.463    -5.559  H    
     29 H           1.437    -8.187    -6.003  H    
     30 H           5.451    -6.548    -2.700  H    
     31 H           5.217    -5.906    -4.316  H    
     32 H           3.279    -4.532    -3.478  H    
     33 H           3.520    -5.198    -1.861  H    
     34 H           3.452    -2.744    -1.726  H    
     35 H           3.629     1.816     0.175  H    
     36 H           5.156     3.616     0.701  H    
     37 H           8.387     1.315    -0.776  H    
     38 H           9.615     4.080     2.078  H    
     39 H           8.714     2.666     2.229  H    
@<TRIPOS>BOND
     1    1    6 ar
     2    1    2 ar
     3    2    3 ar
     4    3    4 ar
     5    4    5 ar
     6    4    7 1
     7    5    6 ar
     8    7    8 1
     9    8    9 1
    10    9   10 2
    11    9   11 1
    12   11   12 1
    13   12   20 1
    14   12   13 2
    15   13   14 1
    16   14   19 ar
    17   14   15 ar
    18   15   16 ar
    19   16   17 ar
    20   17   18 ar
    21   17   21 1
    22   18   19 ar
    23   19   20 1
    24   21   22 2
    25   21   23 2
    26   21   24 1
    27    1   25 1
    28    2   26 1
    29    3   27 1
    30    5   28 1
    31    6   29 1
    32    7   30 1
    33    7   31 1
    34    8   32 1
    35    8   33 1
    36   11   34 1
    37   15   35 1
    38   16   36 1
    39   18   37 1
    40   24   38 1
    41   24   39 1
@<TRIPOS>MOLECULE
ZINC00968822
 60 61 0 0 0
SMALL
NO_CHARGES


@<TRIPOS>ATOM
      1 C          -2.052    -6.381    -3.153  C    
      2 C          -0.518    -6.161    -3.089  C    
      3 C          -0.073    -5.664    -1.683  C    
      4 C           1.465    -5.440    -1.594  C    
      5 C           2.228    -6.728    -2.017  C    
      6 C           1.814    -7.343    -3.403  C    
      7 C           0.250    -7.465    -3.476  C    
      8 C           2.369    -6.502    -4.604  C    
      9 C           2.441    -8.773    -3.520  C    
     10 O           1.912    -4.335    -2.406  O    
     11 C           1.767    -3.004    -1.879  C    
     12 C           2.233    -1.976    -2.942  C    
     13 C           2.157    -0.508    -2.430  C    
     14 C           3.271     1.721    -2.389  C    
     15 C           4.262     2.695    -3.095  C    
     16 C           3.776     3.013    -4.539  C    
     17 C           3.465     1.730    -5.362  C    
     18 C           2.503     0.800    -4.559  C    
     19 C           4.744     0.984    -5.837  C    
     20 C           4.473     3.989    -2.267  C    
     21 O           1.426    -2.149    -4.103  O    
     22 N           3.012     0.477    -3.186  N    
     23 H          -2.350    -6.684    -4.160  H    
     24 H          -2.579    -5.456    -2.906  H    
     25 H          -2.363    -7.157    -2.450  H    
     26 H          -0.281    -5.382    -3.819  H    
     27 H          -0.603    -4.738    -1.440  H    
     28 H          -0.362    -6.405    -0.930  H    
     29 H           1.719    -5.245    -0.547  H    
     30 H           3.303    -6.519    -2.003  H    
     31 H           2.043    -7.468    -1.231  H    
     32 H          -0.074    -8.257    -2.795  H    
     33 H          -0.044    -7.771    -4.485  H    
     34 H           1.942    -5.502    -4.638  H    
     35 H           2.135    -6.988    -5.555  H    
     36 H           3.454    -6.401    -4.536  H    
     37 H           3.532    -8.727    -3.460  H    
     38 H           2.173    -9.242    -4.471  H    
     39 H           2.089    -9.426    -2.716  H    
     40 H           0.727    -2.796    -1.618  H    
     41 H           2.386    -2.908    -0.983  H    
     42 H           3.268    -2.201    -3.205  H    
     43 H           1.115    -0.172    -2.418  H    
     44 H           2.496    -0.525    -1.389  H    
     45 H           3.713     1.453    -1.424  H    
     46 H           2.326     2.236    -2.193  H    
     47 H           5.231     2.195    -3.158  H    
     48 H           2.865     3.616    -4.483  H    
     49 H           4.531     3.610    -5.057  H    
     50 H           2.936     2.043    -6.270  H    
     51 H           1.524     1.285    -4.484  H    
     52 H           2.365    -0.111    -5.146  H    
     53 H           5.374     1.653    -6.430  H    
     54 H           4.475     0.132    -6.466  H    
     55 H           5.328     0.615    -4.993  H    
     56 H           3.532     4.531    -2.141  H    
     57 H           5.188     4.646    -2.766  H    
     58 H           4.868     3.747    -1.276  H    
     59 H           1.598    -3.069    -4.404  H    
     60 H           3.921     0.029    -3.315  H    
@<TRIPOS>BOND
     1    1    2 1
     2    2    7 1
     3    2    3 1
     4    3    4 1
     5    4    5 1
     6    4   10 1
     7    5    6 1
     8    6    7 1
     9    6    8 1
    10    6    9 1
    11   10   11 1
    12   11   12 1
    13   12   13 1
    14   12   21 1
    15   13   22 1
    16   14   15 1
    17   14   22 1
    18   15   16 1
    19   15   20 1
    20   16   17 1
    21   17   18 1
    22   17   19 1
    23   18   22 1
    24    1   23 1
    25    1   24 1
    26    1   25 1
    27    2   26 1
    28    3   27 1
    29    3   28 1
    30    4   29 1
    31    5   30 1
    32    5   31 1
    33    7   32 1
    34    7   33 1
    35    8   34 1
    36    8   35 1
    37    8   36 1
    38    9   37 1
    39    9   38 1
    40    9   39 1
    41   11   40 1
    42   11   41 1
    43   12   42 1
    44   13   43 1
    45   13   44 1
    46   14   45 1
    47   14   46 1
    48   15   47 1
    49   16   48 1
    50   16   49 1
    51   17   50 1
    52   18   51 1
    53   18   52 1
    54   19   53 1
    55   19   54 1
    56   19   55 1
    57   20   56 1
    58   20   57 1
    59   20   58 1
    60   21   59 1
    61   22   60 1
@<TRIPOS>MOLECULE
ZINC00972680
 40 41 0 0 0
SMALL
NO_CHARGES


@<TRIPOS>ATOM
      1 C           6.164    -1.859    -6.144  C    
      2 C           6.446    -0.663    -6.985  C    
      3 C           6.882    -0.856    -8.321  C    
      4 C           7.176     0.238    -9.150  C    
      5 C           7.061     1.543    -8.647  C    
      6 C           6.633     1.751    -7.324  C    
      7 C           6.303     0.662    -6.476  C    
      8 N           5.845     0.800    -5.186  N    
      9 C           5.476     1.856    -4.463  C    
     10 O           5.537     3.017    -4.863  O    
     11 C           4.957     1.615    -3.129  C    
     12 N           5.970     1.098    -2.245  N    
     13 C           6.980     1.898    -1.795  C    
     14 C           8.269     1.803    -2.365  C    
     15 C           9.316     2.618    -1.896  C    
     16 C           9.085     3.531    -0.849  C    
     17 C           7.802     3.632    -0.275  C    
     18 C           6.753     2.820    -0.749  C    
     19 Cl         10.348     4.496    -0.271  Cl   
     20 S           5.794    -0.432    -1.545  S    
     21 O           5.408    -1.498    -2.664  O    
     22 O           7.191    -0.948    -0.981  O    
     23 C           4.585    -0.475    -0.203  C    
     24 H           6.823    -1.856    -5.271  H    
     25 H           6.323    -2.797    -6.681  H    
     26 H           5.123    -1.842    -5.800  H    
     27 H           6.988    -1.797    -8.704  H    
     28 H           7.485     0.088   -10.114  H    
     29 H           7.281     2.344    -9.244  H    
     30 H           6.576     2.717    -6.997  H    
     31 H           5.740    -0.042    -4.711  H    
     32 H           4.553     2.539    -2.699  H    
     33 H           4.110     0.927    -3.217  H    
     34 H           8.449     1.140    -3.123  H    
     35 H          10.246     2.541    -2.318  H    
     36 H           7.626     4.292     0.488  H    
     37 H           5.827     2.897    -0.323  H    
     38 H           4.867     0.240     0.572  H    
     39 H           4.552    -1.478     0.225  H    
     40 H           3.605    -0.214    -0.598  H    
@<TRIPOS>BOND
     1    1    2 1
     2    2    7 ar
     3    2    3 ar
     4    3    4 ar
     5    4    5 ar
     6    5    6 ar
     7    6    7 ar
     8    7    8 1
     9    8    9 1
    10    9   10 2
    11    9   11 1
    12   11   12 1
    13   12   13 1
    14   12   20 1
    15   13   18 ar
    16   13   14 ar
    17   14   15 ar
    18   15   16 ar
    19   16   17 ar
    20   16   19 1
    21   17   18 ar
    22   20   21 2
    23   20   22 2
    24   20   23 1
    25    1   24 1
    26    1   25 1
    27    1   26 1
    28    3   27 1
    29    4   28 1
    30    5   29 1
    31    6   30 1
    32    8   31 1
    33   11   32 1
    34   11   33 1
    35   14   34 1
    36   15   35 1
    37   17   36 1
    38   18   37 1
    39   23   38 1
    40   23   39 1
    41   23   40 1
@<TRIPOS>MOLECULE
ZINC00982915
 49 51 0 0 0
SMALL
NO_CHARGES


@<TRIPOS>ATOM
      1 C           4.631    -7.678    -2.066  C    
      2 N           3.395    -7.127    -2.549  N    
      3 C           3.221    -5.693    -2.624  C    
      4 C           2.629    -5.059    -1.442  C    
      5 O           2.305    -5.816    -0.529  O    
      6 N           2.437    -3.730    -1.298  N    
      7 C           2.812    -2.737    -2.296  C    
      8 C           3.856    -1.751    -1.699  C    
      9 N           3.363    -1.186    -0.448  N    
     10 C           2.946    -2.179     0.534  C    
     11 C           1.896    -3.145    -0.077  C    
     12 C           3.321     0.174    -0.213  C    
     13 C           4.274     1.059    -0.795  C    
     14 C           4.249     2.445    -0.546  C    
     15 C           3.265     2.992     0.290  C    
     16 C           2.310     2.150     0.880  C    
     17 C           2.343     0.764     0.634  C    
     18 S           2.097    -8.166    -2.885  S    
     19 O           1.939    -9.166    -1.655  O    
     20 O           0.727    -7.358    -2.850  O    
     21 C           2.175    -9.028    -4.404  C    
     22 C           3.145    -8.631    -5.353  C    
     23 C           3.252    -9.285    -6.595  C    
     24 C           2.383   -10.353    -6.897  C    
     25 C           1.414   -10.756    -5.965  C    
     26 C           1.298   -10.100    -4.723  C    
     27 Cl          0.076   -10.643    -3.678  Cl   
     28 Cl          4.411    -8.792    -7.723  Cl   
     29 H           5.449    -7.389    -2.728  H    
     30 H           4.614    -8.770    -2.019  H    
     31 H           4.841    -7.298    -1.064  H    
     32 H           4.195    -5.230    -2.805  H    
     33 H           2.594    -5.463    -3.489  H    
     34 H           3.224    -3.154    -3.214  H    
     35 H           1.920    -2.175    -2.594  H    
     36 H           4.793    -2.286    -1.512  H    
     37 H           4.045    -0.998    -2.469  H    
     38 H           3.827    -2.761     0.827  H    
     39 H           2.545    -1.755     1.457  H    
     40 H           0.982    -2.587    -0.310  H    
     41 H           1.628    -3.878     0.690  H    
     42 H           5.039     0.699    -1.374  H    
     43 H           4.953     3.054    -0.973  H    
     44 H           3.245     4.000     0.473  H    
     45 H           1.582     2.545     1.481  H    
     46 H           1.598     0.200     1.046  H    
     47 H           3.779    -7.854    -5.146  H    
     48 H           2.450   -10.831    -7.799  H    
     49 H           0.788   -11.531    -6.203  H    
@<TRIPOS>BOND
     1    1    2 1
     2    2    3 1
     3    2   18 1
     4    3    4 1
     5    4    5 2
     6    4    6 1
     7    6   11 1
     8    6    7 1
     9    7    8 1
    10    8    9 1
    11    9   10 1
    12    9   12 1
    13   10   11 1
    14   12   17 ar
    15   12   13 ar
    16   13   14 ar
    17   14   15 ar
    18   15   16 ar
    19   16   17 ar
    20   18   19 2
    21   18   20 2
    22   18   21 1
    23   21   26 ar
    24   21   22 ar
    25   22   23 ar
    26   23   24 ar
    27   23   28 1
    28   24   25 ar
    29   25   26 ar
    30   26   27 1
    31    1   29 1
    32    1   30 1
    33    1   31 1
    34    3   32 1
    35    3   33 1
    36    7   34 1
    37    7   35 1
    38    8   36 1
    39    8   37 1
    40   10   38 1
    41   10   39 1
    42   11   40 1
    43   11   41 1
    44   13   42 1
    45   14   43 1
    46   15   44 1
    47   16   45 1
    48   17   46 1
    49   22   47 1
    50   24   48 1
    51   25   49 1
@<TRIPOS>MOLECULE
ZINC00988056
 48 52 0 0 0
SMALL
NO_CHARGES


@<TRIPOS>ATOM
      1 C          -0.617    -7.945    -4.947  C    
      2 O           0.596    -8.251    -5.656  O    
      3 C           1.417    -7.167    -5.817  C    
      4 C           1.259    -6.302    -6.918  C    
      5 C           2.124    -5.205    -7.087  C    
      6 C           3.173    -4.973    -6.170  C    
      7 C           3.337    -5.853    -5.078  C    
      8 C           2.468    -6.945    -4.907  C    
      9 N           4.006    -3.902    -6.327  N    
     10 C           5.323    -4.000    -6.721  C    
     11 N           5.837    -5.225    -6.978  N    
     12 C           6.083    -2.802    -6.820  C    
     13 C           5.452    -1.646    -6.489  C    
     14 C           4.141    -1.633    -6.092  C    
     15 N           3.499    -2.751    -6.040  N    
     16 C           3.504    -0.505    -5.714  C    
     17 O           2.968     0.159    -6.592  O    
     18 C           3.438    -0.096    -4.390  C    
     19 C           2.802     1.049    -3.886  C    
     20 C           2.891     1.220    -2.493  C    
     21 C           3.599     0.218    -1.832  C    
     22 S           4.124    -0.899    -3.026  S    
     23 C           7.422    -2.765    -7.243  C    
     24 N           8.247    -1.696    -7.164  N    
     25 C           9.444    -2.026    -7.658  C    
     26 C          10.637    -1.298    -7.796  C    
     27 C          11.757    -1.945    -8.364  C    
     28 C          11.669    -3.292    -8.782  C    
     29 C          10.462    -4.007    -8.637  C    
     30 C           9.356    -3.351    -8.067  C    
     31 N           8.115    -3.781    -7.806  N    
     32 H          -0.410    -7.528    -3.962  H    
     33 H          -1.174    -8.868    -4.811  H    
     34 H          -1.239    -7.257    -5.514  H    
     35 H           0.513    -6.468    -7.593  H    
     36 H           1.993    -4.580    -7.882  H    
     37 H           4.088    -5.698    -4.403  H    
     38 H           2.595    -7.576    -4.115  H    
     39 H           6.760    -5.353    -7.240  H    
     40 H           5.932    -0.776    -6.544  H    
     41 H           2.306     1.716    -4.480  H    
     42 H           2.472     2.013    -2.004  H    
     43 H           3.779     0.157    -0.829  H    
     44 H           8.016    -0.828    -6.800  H    
     45 H          10.692    -0.325    -7.491  H    
     46 H          12.636    -1.437    -8.471  H    
     47 H          12.486    -3.753    -9.191  H    
     48 H          10.392    -4.982    -8.936  H    
@<TRIPOS>BOND
     1    1    2 1
     2    2    3 1
     3    3    8 ar
     4    3    4 ar
     5    4    5 ar
     6    5    6 ar
     7    6    7 ar
     8    6    9 1
     9    7    8 ar
    10    9   15 1
    11    9   10 1
    12   10   11 2
    13   10   12 1
    14   12   13 2
    15   12   23 1
    16   13   14 1
    17   14   15 2
    18   14   16 1
    19   16   17 2
    20   16   18 1
    21   18   22 1
    22   18   19 2
    23   19   20 1
    24   20   21 2
    25   21   22 1
    26   23   31 2
    27   23   24 1
    28   24   25 1
    29   25   30 ar
    30   25   26 ar
    31   26   27 ar
    32   27   28 ar
    33   28   29 ar
    34   29   30 ar
    35   30   31 1
    36    1   32 1
    37    1   33 1
    38    1   34 1
    39    4   35 1
    40    5   36 1
    41    7   37 1
    42    8   38 1
    43   11   39 1
    44   13   40 1
    45   19   41 1
    46   20   42 1
    47   21   43 1
    48   24   44 1
    49   26   45 1
    50   27   46 1
    51   28   47 1
    52   29   48 1
@<TRIPOS>MOLECULE
ZINC01003594
 28 28 0 0 0
SMALL
NO_CHARGES


@<TRIPOS>ATOM
      1 C          -2.132    -7.173    -4.289  C    
      2 C          -0.762    -6.578    -3.887  C    
      3 C          -0.645    -6.133    -2.398  C    
      4 C          -0.707    -7.321    -1.397  C    
      5 O          -0.630    -6.863    -0.048  O    
      6 N           0.599    -5.440    -2.201  N    
      7 C           0.841    -4.153    -2.423  C    
      8 O          -0.063    -3.431    -2.830  O    
      9 C           2.104    -3.605    -2.183  C    
     10 C           3.277    -4.403    -2.143  C    
     11 C           4.541    -3.831    -1.909  C    
     12 C           4.632    -2.443    -1.705  C    
     13 N           3.507    -1.687    -1.747  N    
     14 C           2.275    -2.210    -1.976  C    
     15 H          -2.322    -8.106    -3.756  H    
     16 H          -2.140    -7.384    -5.361  H    
     17 H          -2.932    -6.465    -4.069  H    
     18 H           0.018    -7.314    -4.106  H    
     19 H          -0.584    -5.708    -4.527  H    
     20 H          -1.480    -5.464    -2.166  H    
     21 H          -1.649    -7.858    -1.503  H    
     22 H           0.116    -8.018    -1.579  H    
     23 H           0.250    -6.440     0.034  H    
     24 H           1.333    -5.970    -1.849  H    
     25 H           3.229    -5.413    -2.302  H    
     26 H           5.382    -4.414    -1.893  H    
     27 H           5.535    -2.000    -1.527  H    
     28 H           1.476    -1.570    -1.984  H    
@<TRIPOS>BOND
     1    1    2 1
     2    2    3 1
     3    3    4 1
     4    3    6 1
     5    4    5 1
     6    6    7 1
     7    7    8 2
     8    7    9 1
     9    9   14 ar
    10    9   10 ar
    11   10   11 ar
    12   11   12 ar
    13   12   13 ar
    14   13   14 ar
    15    1   15 1
    16    1   16 1
    17    1   17 1
    18    2   18 1
    19    2   19 1
    20    3   20 1
    21    4   21 1
    22    4   22 1
    23    5   23 1
    24    6   24 1
    25   10   25 1
    26   11   26 1
    27   12   27 1
    28   14   28 1
@<TRIPOS>MOLECULE
ZINC01008142
 56 59 0 0 0
SMALL
NO_CHARGES


@<TRIPOS>ATOM
      1 C           2.636     4.068   -13.085  C    
      2 C           3.044     3.302   -11.888  C    
      3 C           4.232     2.540   -11.864  C    
      4 C           4.596     1.813   -10.713  C    
      5 C           3.788     1.827    -9.552  C    
      6 C           2.595     2.590    -9.588  C    
      7 C           2.229     3.318   -10.736  C    
      8 N           4.243     1.082    -8.493  N    
      9 C           3.788     0.942    -7.253  C    
     10 O           2.789     1.515    -6.843  O    
     11 C           4.520     0.056    -6.362  C    
     12 N           4.023    -0.008    -5.001  N    
     13 C           4.176     0.956    -4.103  C    
     14 O           4.783     1.994    -4.347  O    
     15 C           3.638     0.679    -2.893  C    
     16 C           3.570     1.550    -1.864  C    
     17 C           3.034     1.306    -0.602  C    
     18 C           2.173     2.252    -0.023  C    
     19 C           1.590     2.017     1.229  C    
     20 C           1.843     0.844     1.998  C    
     21 C           2.817    -0.067     1.452  C    
     22 C           3.377     0.176     0.170  C    
     23 C           3.392    -1.233     2.188  C    
     24 N           1.136     0.672     3.182  N    
     25 C           0.342     1.699     3.817  C    
     26 C          -0.146     1.148     5.162  C    
     27 C          -0.171    -0.361     4.912  C    
     28 C           0.974    -0.562     3.908  C    
     29 S           2.904    -0.870    -2.871  S    
     30 C           3.365    -1.038    -4.494  C    
     31 O           3.067    -2.059    -5.101  O    
     32 H           1.665     3.713   -13.437  H    
     33 H           3.354     3.963   -13.901  H    
     34 H           2.556     5.128   -12.834  H    
     35 H           4.839     2.506   -12.687  H    
     36 H           5.465     1.270   -10.729  H    
     37 H           1.965     2.627    -8.787  H    
     38 H           1.361     3.857   -10.728  H    
     39 H           5.051     0.579    -8.681  H    
     40 H           4.517    -0.939    -6.819  H    
     41 H           5.566     0.373    -6.325  H    
     42 H           3.866     2.490    -2.033  H    
     43 H           1.922     3.106    -0.537  H    
     44 H           0.930     2.729     1.548  H    
     45 H           4.076    -0.473    -0.210  H    
     46 H           3.769    -0.911     3.160  H    
     47 H           4.239    -1.697     1.670  H    
     48 H           2.650    -2.019     2.308  H    
     49 H           0.932     2.603     3.989  H    
     50 H          -0.523     1.941     3.195  H    
     51 H           0.569     1.384     5.956  H    
     52 H          -1.134     1.535     5.431  H    
     53 H          -0.015    -0.933     5.831  H    
     54 H          -1.130    -0.650     4.467  H    
     55 H           0.695    -1.381     3.243  H    
     56 H           1.884    -0.806     4.456  H    
@<TRIPOS>BOND
     1    1    2 1
     2    2    7 ar
     3    2    3 ar
     4    3    4 ar
     5    4    5 ar
     6    5    6 ar
     7    5    8 1
     8    6    7 ar
     9    8    9 1
    10    9   10 2
    11    9   11 1
    12   11   12 1
    13   12   30 1
    14   12   13 1
    15   13   14 2
    16   13   15 1
    17   15   16 2
    18   15   29 1
    19   16   17 1
    20   17   22 ar
    21   17   18 ar
    22   18   19 ar
    23   19   20 ar
    24   20   21 ar
    25   20   24 1
    26   21   22 ar
    27   21   23 1
    28   24   28 1
    29   24   25 1
    30   25   26 1
    31   26   27 1
    32   27   28 1
    33   29   30 1
    34   30   31 2
    35    1   32 1
    36    1   33 1
    37    1   34 1
    38    3   35 1
    39    4   36 1
    40    6   37 1
    41    7   38 1
    42    8   39 1
    43   11   40 1
    44   11   41 1
    45   16   42 1
    46   18   43 1
    47   19   44 1
    48   22   45 1
    49   23   46 1
    50   23   47 1
    51   23   48 1
    52   25   49 1
    53   25   50 1
    54   26   51 1
    55   26   52 1
    56   27   53 1
    57   27   54 1
    58   28   55 1
    59   28   56 1
@<TRIPOS>MOLECULE
ZINC01014115
 52 55 0 0 0
SMALL
NO_CHARGES


@<TRIPOS>ATOM
      1 C          12.045     6.027    -5.797  C    
      2 C          11.279     4.757    -5.830  C    
      3 C           9.868     4.743    -5.913  C    
      4 C           9.164     3.524    -5.930  C    
      5 C           9.852     2.288    -5.865  C    
      6 C          11.259     2.310    -5.794  C    
      7 C          11.967     3.526    -5.776  C    
      8 O           9.276     1.034    -5.855  O    
      9 C           7.846     0.869    -5.906  C    
     10 C           7.496    -0.634    -5.818  C    
     11 N           6.075    -0.845    -5.854  N    
     12 C           5.303    -1.080    -4.769  C    
     13 C           3.964    -1.206    -5.144  C    
     14 C           3.955    -1.072    -6.534  C    
     15 C           5.273    -0.834    -6.942  C    
     16 C           5.570    -0.632    -8.307  C    
     17 C           4.523    -0.667    -9.252  C    
     18 C           3.195    -0.904    -8.836  C    
     19 C           2.902    -1.106    -7.471  C    
     20 C           2.863    -1.465    -4.335  C    
     21 C           2.643    -1.001    -3.087  C    
     22 C           1.571    -1.329    -2.325  C    
     23 O           0.802    -2.243    -2.615  O    
     24 N           1.422    -0.606    -1.224  N    
     25 C           2.401     0.317    -1.092  C    
     26 N           2.470     1.208    -0.072  N    
     27 C           3.444     2.216     0.147  C    
     28 S           3.569     0.247    -2.367  S    
     29 C           0.339    -0.794    -0.290  C    
     30 H          12.626     6.083    -4.873  H    
     31 H          11.392     6.900    -5.839  H    
     32 H          12.728     6.071    -6.646  H    
     33 H           9.343     5.620    -5.956  H    
     34 H           8.145     3.550    -5.988  H    
     35 H          11.781     1.433    -5.752  H    
     36 H          12.990     3.509    -5.719  H    
     37 H           7.377     1.387    -5.062  H    
     38 H           7.459     1.284    -6.843  H    
     39 H           7.970    -1.180    -6.641  H    
     40 H           7.915    -1.035    -4.888  H    
     41 H           5.658    -1.168    -3.815  H    
     42 H           6.530    -0.461    -8.615  H    
     43 H           4.727    -0.515   -10.245  H    
     44 H           2.440    -0.924    -9.527  H    
     45 H           1.939    -1.271    -7.171  H    
     46 H           2.156    -2.029    -4.750  H    
     47 H           4.434     1.770     0.253  H    
     48 H           3.202     2.755     1.066  H    
     49 H           3.450     2.923    -0.684  H    
     50 H          -0.616    -0.656    -0.803  H    
     51 H           0.371    -0.095     0.548  H    
     52 H           0.378    -1.808     0.119  H    
@<TRIPOS>BOND
     1    1    2 1
     2    2    7 ar
     3    2    3 ar
     4    3    4 ar
     5    4    5 ar
     6    5    6 ar
     7    5    8 1
     8    6    7 ar
     9    8    9 1
    10    9   10 1
    11   10   11 1
    12   11   15 1
    13   11   12 1
    14   12   13 2
    15   13   14 1
    16   13   20 1
    17   14   19 ar
    18   14   15 ar
    19   15   16 ar
    20   16   17 ar
    21   17   18 ar
    22   18   19 ar
    23   20   21 2
    24   21   28 1
    25   21   22 1
    26   22   23 2
    27   22   24 1
    28   24   25 1
    29   24   29 1
    30   25   26 2
    31   25   28 1
    32   26   27 1
    33    1   30 1
    34    1   31 1
    35    1   32 1
    36    3   33 1
    37    4   34 1
    38    6   35 1
    39    7   36 1
    40    9   37 1
    41    9   38 1
    42   10   39 1
    43   10   40 1
    44   12   41 1
    45   16   42 1
    46   17   43 1
    47   18   44 1
    48   19   45 1
    49   20   46 1
    50   27   47 1
    51   27   48 1
    52   27   49 1
    53   29   50 1
    54   29   51 1
    55   29   52 1
@<TRIPOS>MOLECULE
ZINC01014394
 48 51 0 0 0
SMALL
NO_CHARGES


@<TRIPOS>ATOM
      1 C           0.589    -8.045    -4.940  C    
      2 N           0.418    -7.030    -3.930  N    
      3 C           1.193    -5.958    -3.814  C    
      4 O           1.985    -5.648    -4.696  O    
      5 C           0.932    -5.176    -2.739  C    
      6 C           1.555    -4.060    -2.307  C    
      7 C           2.753    -3.522    -2.742  C    
      8 C           3.198    -2.233    -2.481  C    
      9 C           4.457    -2.102    -3.042  C    
     10 C           4.787    -3.324    -3.627  C    
     11 O           3.737    -4.159    -3.419  O    
     12 C           5.984    -3.709    -4.298  C    
     13 C           7.085    -2.830    -4.422  C    
     14 C           8.261    -3.237    -5.067  C    
     15 C           8.377    -4.535    -5.599  C    
     16 C           7.293    -5.448    -5.489  C    
     17 C           6.109    -5.010    -4.845  C    
     18 C           7.353    -6.772    -5.992  C    
     19 O           6.234    -7.441    -6.354  O    
     20 Cl          9.828    -4.889    -6.411  Cl   
     21 S          -0.390    -5.763    -1.831  S    
     22 C          -0.512    -7.080    -2.944  C    
     23 N          -1.492    -7.974    -2.666  N    
     24 C          -2.052    -9.010    -3.335  C    
     25 C          -2.228   -10.235    -2.660  C    
     26 C          -2.868   -11.314    -3.299  C    
     27 C          -3.357   -11.168    -4.615  C    
     28 C          -3.224    -9.931    -5.273  C    
     29 C          -2.582    -8.855    -4.634  C    
     30 O          -4.012   -12.197    -5.235  O    
     31 C          -3.123   -13.142    -5.859  C    
     32 O           8.494    -7.497    -5.956  O    
     33 H           0.592    -9.038    -4.488  H    
     34 H           1.526    -7.941    -5.487  H    
     35 H          -0.214    -7.984    -5.673  H    
     36 H           1.122    -3.564    -1.563  H    
     37 H           2.697    -1.505    -1.972  H    
     38 H           5.025    -1.258    -3.010  H    
     39 H           7.048    -1.885    -4.039  H    
     40 H           9.038    -2.574    -5.147  H    
     41 H           5.322    -5.655    -4.759  H    
     42 H          -1.893   -10.342    -1.700  H    
     43 H          -2.977   -12.201    -2.803  H    
     44 H          -3.610    -9.812    -6.212  H    
     45 H          -2.534    -7.951    -5.109  H    
     46 H          -2.466   -12.654    -6.590  H    
     47 H          -3.725   -13.882    -6.388  H    
     48 H          -2.519   -13.657    -5.112  H    
@<TRIPOS>BOND
     1    1    2 1
     2    2   22 1
     3    2    3 1
     4    3    4 2
     5    3    5 1
     6    5    6 2
     7    5   21 1
     8    6    7 1
     9    7   11 1
    10    7    8 2
    11    8    9 1
    12    9   10 2
    13   10   11 1
    14   10   12 1
    15   12   17 ar
    16   12   13 ar
    17   13   14 ar
    18   14   15 ar
    19   15   16 ar
    20   15   20 1
    21   16   17 ar
    22   16   18 1
    23   18   19 2
    24   18   32 1
    25   21   22 1
    26   22   23 2
    27   23   24 1
    28   24   29 ar
    29   24   25 ar
    30   25   26 ar
    31   26   27 ar
    32   27   28 ar
    33   27   30 1
    34   28   29 ar
    35   30   31 1
    36    1   33 1
    37    1   34 1
    38    1   35 1
    39    6   36 1
    40    8   37 1
    41    9   38 1
    42   13   39 1
    43   14   40 1
    44   17   41 1
    45   25   42 1
    46   26   43 1
    47   28   44 1
    48   29   45 1
    49   31   46 1
    50   31   47 1
    51   31   48 1
@<TRIPOS>MOLECULE
ZINC01014905
 46 48 0 0 0
SMALL
NO_CHARGES


@<TRIPOS>ATOM
      1 C           3.234    -5.721    -7.229  C    
      2 C           2.398    -5.176    -6.045  C    
      3 N           2.943    -5.579    -4.765  N    
      4 C           2.845    -6.823    -4.310  C    
      5 O           2.327    -7.720    -4.966  O    
      6 C           3.377    -7.030    -3.082  C    
      7 C           3.551    -8.190    -2.410  C    
      8 C           3.072    -9.429    -2.801  C    
      9 C           3.972   -10.464    -3.149  C    
     10 C           3.496   -11.713    -3.605  C    
     11 C           2.103   -11.953    -3.659  C    
     12 C           1.202   -10.945    -3.249  C    
     13 C           1.682    -9.690    -2.837  C    
     14 I          -0.832   -11.268    -3.234  I    
     15 O           1.634   -13.192    -4.017  O    
     16 C           1.327   -13.311    -5.418  C    
     17 O           4.356   -12.726    -3.948  O    
     18 C           5.130   -12.463    -5.137  C    
     19 S           3.950    -5.582    -2.389  S    
     20 C           3.539    -4.765    -3.858  C    
     21 N           3.844    -3.448    -3.866  N    
     22 C           3.914    -2.388    -4.712  C    
     23 C           3.569    -1.116    -4.201  C    
     24 C           3.695     0.035    -5.004  C    
     25 C           4.188    -0.074    -6.317  C    
     26 C           4.562    -1.334    -6.824  C    
     27 C           4.438    -2.483    -6.021  C    
     28 H           4.299    -5.559    -7.056  H    
     29 H           2.941    -5.217    -8.153  H    
     30 H           3.068    -6.795    -7.354  H    
     31 H           2.326    -4.094    -6.124  H    
     32 H           1.371    -5.544    -6.143  H    
     33 H           4.099    -8.177    -1.576  H    
     34 H           4.985   -10.310    -3.097  H    
     35 H           1.011    -8.966    -2.558  H    
     36 H           0.547   -12.605    -5.718  H    
     37 H           0.962   -14.324    -5.597  H    
     38 H           2.215   -13.156    -6.037  H    
     39 H           4.500   -12.125    -5.972  H    
     40 H           5.623   -13.391    -5.436  H    
     41 H           5.896   -11.712    -4.937  H    
     42 H           3.219    -1.024    -3.244  H    
     43 H           3.438     0.952    -4.630  H    
     44 H           4.291     0.762    -6.897  H    
     45 H           4.938    -1.408    -7.771  H    
     46 H           4.762    -3.378    -6.381  H    
@<TRIPOS>BOND
     1    1    2 1
     2    2    3 1
     3    3   20 1
     4    3    4 1
     5    4    5 2
     6    4    6 1
     7    6    7 2
     8    6   19 1
     9    7    8 1
    10    8   13 ar
    11    8    9 ar
    12    9   10 ar
    13   10   11 ar
    14   10   17 1
    15   11   12 ar
    16   11   15 1
    17   12   13 ar
    18   12   14 1
    19   15   16 1
    20   17   18 1
    21   19   20 1
    22   20   21 2
    23   21   22 1
    24   22   27 ar
    25   22   23 ar
    26   23   24 ar
    27   24   25 ar
    28   25   26 ar
    29   26   27 ar
    30    1   28 1
    31    1   29 1
    32    1   30 1
    33    2   31 1
    34    2   32 1
    35    7   33 1
    36    9   34 1
    37   13   35 1
    38   16   36 1
    39   16   37 1
    40   16   38 1
    41   18   39 1
    42   18   40 1
    43   18   41 1
    44   23   42 1
    45   24   43 1
    46   25   44 1
    47   26   45 1
    48   27   46 1
@<TRIPOS>MOLECULE
ZINC01024308
 37 38 0 0 0
SMALL
NO_CHARGES


@<TRIPOS>ATOM
      1 C           3.060    -9.536    -6.078  C    
      2 C           2.760    -8.134    -6.421  C    
      3 C           1.971    -7.769    -7.532  C    
      4 C           1.716    -6.404    -7.805  C    
      5 C           2.275    -5.434    -6.935  C    
      6 C           3.074    -5.831    -5.839  C    
      7 N           3.276    -7.154    -5.634  N    
      8 N           3.681    -4.990    -4.972  N    
      9 N           3.565    -3.690    -4.999  N    
     10 C           4.272    -2.869    -4.244  C    
     11 O           5.132    -3.304    -3.488  O    
     12 N           4.009    -1.574    -4.371  N    
     13 C           4.594    -0.528    -3.790  C    
     14 O           5.558    -0.691    -3.046  O    
     15 C           4.147     0.774    -4.046  C    
     16 C           3.746     1.155    -5.360  C    
     17 C           3.312     2.467    -5.636  C    
     18 C           3.263     3.425    -4.614  C    
     19 C           3.650     3.075    -3.312  C    
     20 C           4.084     1.764    -3.019  C    
     21 Cl          4.447     1.459    -1.384  Cl   
     22 F           3.814     0.337    -6.377  F    
     23 C           0.897    -5.957    -8.968  C    
     24 F          -0.181    -5.222    -8.534  F    
     25 F           1.653    -5.171    -9.801  F    
     26 F           0.395    -6.981    -9.741  F    
     27 H           4.141    -9.691    -6.066  H    
     28 H           2.620   -10.234    -6.797  H    
     29 H           2.656    -9.761    -5.089  H    
     30 H           1.593    -8.499    -8.141  H    
     31 H           2.113    -4.440    -7.119  H    
     32 H           4.238    -5.380    -4.281  H    
     33 H           2.927    -3.297    -5.614  H    
     34 H           3.278    -1.363    -4.972  H    
     35 H           3.035     2.733    -6.586  H    
     36 H           2.949     4.379    -4.815  H    
     37 H           3.602     3.784    -2.575  H    
@<TRIPOS>BOND
     1    1    2 1
     2    2    7 ar
     3    2    3 ar
     4    3    4 ar
     5    4    5 ar
     6    4   23 1
     7    5    6 ar
     8    6    7 ar
     9    6    8 1
    10    8    9 1
    11    9   10 1
    12   10   11 2
    13   10   12 1
    14   12   13 1
    15   13   14 2
    16   13   15 1
    17   15   20 ar
    18   15   16 ar
    19   16   17 ar
    20   16   22 1
    21   17   18 ar
    22   18   19 ar
    23   19   20 ar
    24   20   21 1
    25   23   24 1
    26   23   25 1
    27   23   26 1
    28    1   27 1
    29    1   28 1
    30    1   29 1
    31    3   30 1
    32    5   31 1
    33    8   32 1
    34    9   33 1
    35   12   34 1
    36   17   35 1
    37   18   36 1
    38   19   37 1
@<TRIPOS>MOLECULE
ZINC01026072
 51 54 0 0 0
SMALL
NO_CHARGES


@<TRIPOS>ATOM
      1 C           1.328    -9.994    -4.676  C    
      2 C           1.473    -8.000    -6.145  C    
      3 C           0.907    -6.582    -6.427  C    
      4 N           0.993    -5.764    -5.227  N    
      5 C           0.317    -6.336    -4.071  C    
      6 C           0.903    -7.734    -3.744  C    
      7 C           1.683    -4.569    -5.182  C    
      8 C           1.809    -3.729    -6.320  C    
      9 C           2.530    -2.519    -6.280  C    
     10 C           3.160    -2.101    -5.088  C    
     11 C           3.043    -2.916    -3.945  C    
     12 C           2.317    -4.120    -3.996  C    
     13 C           3.937    -0.835    -5.052  C    
     14 N           5.050    -0.915    -5.940  N    
     15 S           6.091     0.387    -6.173  S    
     16 O           5.255     1.691    -6.532  O    
     17 O           6.983     0.634    -4.877  O    
     18 C           7.098     0.083    -7.548  C    
     19 C           8.469     0.333    -7.666  C    
     20 C           9.015    -0.029    -8.907  C    
     21 C           8.099    -0.574    -9.822  C    
     22 S           6.568    -0.596    -9.034  S    
     23 C           8.376    -1.007   -11.129  C    
     24 C           7.481    -1.538   -12.049  C    
     25 C           8.222    -1.792   -13.189  C    
     26 O           9.502    -1.428   -12.944  O    
     27 N           9.584    -0.965   -11.725  N    
     28 N           0.827    -8.620    -4.947  N    
     29 H           1.149   -10.637    -5.540  H    
     30 H           0.799   -10.433    -3.827  H    
     31 H           2.402    -9.990    -4.458  H    
     32 H           1.290    -8.623    -7.024  H    
     33 H           2.556    -7.928    -5.998  H    
     34 H           1.473    -6.187    -7.271  H    
     35 H          -0.137    -6.658    -6.744  H    
     36 H           0.353    -5.715    -3.177  H    
     37 H          -0.742    -6.453    -4.315  H    
     38 H           1.939    -7.624    -3.404  H    
     39 H           0.317    -8.167    -2.925  H    
     40 H           1.335    -3.963    -7.196  H    
     41 H           2.592    -1.947    -7.128  H    
     42 H           3.507    -2.653    -3.072  H    
     43 H           2.322    -4.700    -3.157  H    
     44 H           3.282    -0.004    -5.345  H    
     45 H           4.316    -0.628    -4.044  H    
     46 H           5.353    -1.798    -6.213  H    
     47 H           9.033     0.739    -6.917  H    
     48 H          10.006     0.097    -9.126  H    
     49 H           6.480    -1.708   -11.928  H    
     50 H           7.870    -2.178   -14.066  H    
     51 H          -0.170    -8.715    -5.169  H    
@<TRIPOS>BOND
     1    1   28 1
     2    2    3 1
     3    2   28 1
     4    3    4 1
     5    4    5 1
     6    4    7 1
     7    5    6 1
     8    6   28 1
     9    7   12 ar
    10    7    8 ar
    11    8    9 ar
    12    9   10 ar
    13   10   11 ar
    14   10   13 1
    15   11   12 ar
    16   13   14 1
    17   14   15 1
    18   15   16 2
    19   15   17 2
    20   15   18 1
    21   18   22 1
    22   18   19 2
    23   19   20 1
    24   20   21 2
    25   21   22 1
    26   21   23 1
    27   23   27 2
    28   23   24 1
    29   24   25 2
    30   25   26 1
    31   26   27 1
    32    1   29 1
    33    1   30 1
    34    1   31 1
    35    2   32 1
    36    2   33 1
    37    3   34 1
    38    3   35 1
    39    5   36 1
    40    5   37 1
    41    6   38 1
    42    6   39 1
    43    8   40 1
    44    9   41 1
    45   11   42 1
    46   12   43 1
    47   13   44 1
    48   13   45 1
    49   14   46 1
    50   19   47 1
    51   20   48 1
    52   24   49 1
    53   25   50 1
    54   28   51 1
@<TRIPOS>MOLECULE
ZINC01027575
 45 47 0 0 0
SMALL
NO_CHARGES


@<TRIPOS>ATOM
      1 C           4.035    -7.435    -5.240  C    
      2 N           5.069    -7.174    -4.288  N    
      3 C           5.630    -6.000    -3.876  C    
      4 C           6.637    -6.345    -2.983  C    
      5 C           6.638    -7.726    -2.905  C    
      6 N           5.670    -8.179    -3.717  N    
      7 N           5.450    -4.683    -4.163  N    
      8 S           4.037    -3.942    -4.708  S    
      9 O           3.902    -4.052    -6.291  O    
     10 O           2.776    -4.583    -3.977  O    
     11 C           4.087    -2.272    -4.212  C    
     12 C           4.018    -1.952    -2.838  C    
     13 C           4.060    -0.611    -2.413  C    
     14 C           4.160     0.443    -3.354  C    
     15 C           4.239     0.113    -4.726  C    
     16 C           4.203    -1.228    -5.154  C    
     17 N           4.179     1.768    -3.043  N    
     18 S           4.100     2.452    -1.502  S    
     19 O           2.733     2.053    -0.789  O    
     20 O           5.354     1.975    -0.645  O    
     21 C           4.171     4.180    -1.720  C    
     22 C           5.417     4.815    -1.904  C    
     23 C           5.482     6.201    -2.140  C    
     24 C           4.305     6.988    -2.205  C    
     25 C           3.060     6.338    -2.019  C    
     26 C           2.992     4.951    -1.783  C    
     27 C           4.413     8.449    -2.478  C    
     28 F           3.215     9.113    -2.525  F    
     29 F           5.169     9.056    -1.502  F    
     30 F           5.025     8.652    -3.689  F    
     31 H           4.446    -8.033    -6.058  H    
     32 H           3.611    -6.533    -5.665  H    
     33 H           3.233    -8.001    -4.761  H    
     34 H           7.266    -5.717    -2.473  H    
     35 H           7.264    -8.302    -2.341  H    
     36 H           6.151    -4.082    -3.854  H    
     37 H           3.939    -2.697    -2.139  H    
     38 H           4.010    -0.413    -1.414  H    
     39 H           4.317     0.854    -5.430  H    
     40 H           4.263    -1.434    -6.152  H    
     41 H           4.242     2.387    -3.786  H    
     42 H           6.283     4.268    -1.884  H    
     43 H           6.399     6.632    -2.275  H    
     44 H           2.187     6.866    -2.064  H    
     45 H           2.077     4.507    -1.676  H    
@<TRIPOS>BOND
     1    1    2 1
     2    2    6 1
     3    2    3 1
     4    3    4 2
     5    3    7 1
     6    4    5 1
     7    5    6 2
     8    7    8 1
     9    8    9 2
    10    8   10 2
    11    8   11 1
    12   11   16 ar
    13   11   12 ar
    14   12   13 ar
    15   13   14 ar
    16   14   15 ar
    17   14   17 1
    18   15   16 ar
    19   17   18 1
    20   18   19 2
    21   18   20 2
    22   18   21 1
    23   21   26 ar
    24   21   22 ar
    25   22   23 ar
    26   23   24 ar
    27   24   25 ar
    28   24   27 1
    29   25   26 ar
    30   27   28 1
    31   27   29 1
    32   27   30 1
    33    1   31 1
    34    1   32 1
    35    1   33 1
    36    4   34 1
    37    5   35 1
    38    7   36 1
    39   12   37 1
    40   13   38 1
    41   15   39 1
    42   16   40 1
    43   17   41 1
    44   22   42 1
    45   23   43 1
    46   25   44 1
    47   26   45 1
@<TRIPOS>MOLECULE
ZINC01027917
 43 47 0 0 0
SMALL
NO_CHARGES


@<TRIPOS>ATOM
      1 C          10.166    -0.722   -13.533  C    
      2 C           8.879    -0.239   -13.859  C    
      3 C           7.900    -0.091   -12.854  C    
      4 C           8.239    -0.421   -11.532  C    
      5 C           9.506    -0.896   -11.211  C    
      6 C          10.487    -1.060   -12.203  C    
      7 N           9.550    -1.123    -9.894  N    
      8 C           8.337    -0.799    -9.413  C    
      9 O           7.515    -0.362   -10.400  O    
     10 S           7.947    -0.926    -7.726  S    
     11 C           6.143    -0.850    -7.863  C    
     12 C           5.538    -0.950    -6.521  C    
     13 C           5.644     0.093    -5.574  C    
     14 C           5.016    -0.043    -4.325  C    
     15 C           4.292    -1.210    -4.026  C    
     16 C           4.225    -2.245    -4.983  C    
     17 N           4.838    -2.064    -6.183  N    
     18 C           3.462    -3.482    -4.737  C    
     19 S           1.704    -3.142    -5.000  S    
     20 C           1.083    -4.723    -4.646  C    
     21 N          -0.217    -5.037    -4.799  N    
     22 C          -0.342    -6.314    -4.424  C    
     23 C          -1.471    -7.149    -4.369  C    
     24 C          -1.312    -8.472    -3.900  C    
     25 C          -0.040    -8.943    -3.507  C    
     26 C           1.086    -8.097    -3.578  C    
     27 C           0.909    -6.782    -4.036  C    
     28 O           1.793    -5.779    -4.178  O    
     29 H          10.870    -0.823   -14.270  H    
     30 H           8.656     0.005   -14.826  H    
     31 H           6.967     0.253   -13.080  H    
     32 H          11.414    -1.413   -11.966  H    
     33 H           5.837     0.088    -8.332  H    
     34 H           5.808    -1.676    -8.497  H    
     35 H           6.161     0.946    -5.789  H    
     36 H           5.078     0.714    -3.635  H    
     37 H           3.831    -1.298    -3.120  H    
     38 H           3.780    -4.266    -5.429  H    
     39 H           3.632    -3.833    -3.716  H    
     40 H          -2.388    -6.807    -4.652  H    
     41 H          -2.124    -9.092    -3.838  H    
     42 H           0.065    -9.901    -3.164  H    
     43 H           2.008    -8.429    -3.296  H    
@<TRIPOS>BOND
     1    1    6 ar
     2    1    2 ar
     3    2    3 ar
     4    3    4 ar
     5    4    9 1
     6    4    5 ar
     7    5    6 ar
     8    5    7 1
     9    7    8 2
    10    8    9 1
    11    8   10 1
    12   10   11 1
    13   11   12 1
    14   12   17 ar
    15   12   13 ar
    16   13   14 ar
    17   14   15 ar
    18   15   16 ar
    19   16   17 ar
    20   16   18 1
    21   18   19 1
    22   19   20 1
    23   20   28 1
    24   20   21 2
    25   21   22 1
    26   22   27 ar
    27   22   23 ar
    28   23   24 ar
    29   24   25 ar
    30   25   26 ar
    31   26   27 ar
    32   27   28 1
    33    1   29 1
    34    2   30 1
    35    3   31 1
    36    6   32 1
    37   11   33 1
    38   11   34 1
    39   13   35 1
    40   14   36 1
    41   15   37 1
    42   18   38 1
    43   18   39 1
    44   23   40 1
    45   24   41 1
    46   25   42 1
    47   26   43 1
@<TRIPOS>MOLECULE
ZINC01033781
 54 57 0 0 0
SMALL
NO_CHARGES


@<TRIPOS>ATOM
      1 C           7.463    -1.098     0.326  C    
      2 C           8.221    -2.181    -0.282  C    
      3 O           9.336    -2.375     0.191  O    
      4 C           7.779    -2.978    -1.349  C    
      5 C           8.706    -3.593    -2.227  C    
      6 C           8.277    -4.395    -3.301  C    
      7 C           6.902    -4.640    -3.556  C    
      8 C           5.983    -4.034    -2.659  C    
      9 C           6.406    -3.228    -1.585  C    
     10 N           6.477    -5.427    -4.607  N    
     11 C           7.257    -6.534    -5.141  C    
     12 C           7.538    -6.327    -6.650  C    
     13 N           6.309    -6.037    -7.341  N    
     14 C           5.440    -5.018    -6.813  C    
     15 C           5.208    -5.219    -5.290  C    
     16 S           5.899    -6.861    -8.760  S    
     17 O           5.141    -5.881    -9.762  O    
     18 O           7.207    -7.309    -9.552  O    
     19 C           4.898    -8.231    -8.407  C    
     20 C           3.576    -8.196    -7.952  C    
     21 C           3.021    -9.461    -7.690  C    
     22 C           3.888   -10.533    -7.927  C    
     23 S           5.385    -9.880    -8.466  S    
     24 S           3.557   -12.212    -7.662  S    
     25 O           2.070   -12.529    -8.130  O    
     26 O           4.561   -13.091    -8.528  O    
     27 C           3.752   -12.536    -5.962  C    
     28 C           5.009   -12.925    -5.450  C    
     29 C           5.170   -13.170    -4.072  C    
     30 C           4.079   -13.020    -3.197  C    
     31 C           2.826   -12.622    -3.699  C    
     32 C           2.664   -12.378    -5.077  C    
     33 H           7.165    -1.380     1.338  H    
     34 H           6.568    -0.839    -0.242  H    
     35 H           8.083    -0.199     0.379  H    
     36 H           9.712    -3.438    -2.111  H    
     37 H           8.997    -4.753    -3.932  H    
     38 H           4.982    -4.221    -2.735  H    
     39 H           5.692    -2.858    -0.953  H    
     40 H           8.200    -6.709    -4.621  H    
     41 H           6.680    -7.456    -5.019  H    
     42 H           8.228    -5.489    -6.784  H    
     43 H           8.023    -7.227    -7.036  H    
     44 H           5.902    -4.043    -6.985  H    
     45 H           4.466    -5.016    -7.309  H    
     46 H           4.567    -6.093    -5.135  H    
     47 H           4.658    -4.342    -4.943  H    
     48 H           3.059    -7.325    -7.805  H    
     49 H           2.068    -9.583    -7.340  H    
     50 H           5.813   -13.030    -6.072  H    
     51 H           6.082   -13.454    -3.706  H    
     52 H           4.197   -13.196    -2.197  H    
     53 H           2.035   -12.507    -3.063  H    
     54 H           1.749   -12.082    -5.427  H    
@<TRIPOS>BOND
     1    1    2 1
     2    2    3 2
     3    2    4 1
     4    4    9 ar
     5    4    5 ar
     6    5    6 ar
     7    6    7 ar
     8    7    8 ar
     9    7   10 1
    10    8    9 ar
    11   10   15 1
    12   10   11 1
    13   11   12 1
    14   12   13 1
    15   13   14 1
    16   13   16 1
    17   14   15 1
    18   16   17 2
    19   16   18 2
    20   16   19 1
    21   19   23 1
    22   19   20 2
    23   20   21 1
    24   21   22 2
    25   22   23 1
    26   22   24 1
    27   24   25 2
    28   24   26 2
    29   24   27 1
    30   27   32 ar
    31   27   28 ar
    32   28   29 ar
    33   29   30 ar
    34   30   31 ar
    35   31   32 ar
    36    1   33 1
    37    1   34 1
    38    1   35 1
    39    5   36 1
    40    6   37 1
    41    8   38 1
    42    9   39 1
    43   11   40 1
    44   11   41 1
    45   12   42 1
    46   12   43 1
    47   14   44 1
    48   14   45 1
    49   15   46 1
    50   15   47 1
    51   20   48 1
    52   21   49 1
    53   28   50 1
    54   29   51 1
    55   30   52 1
    56   31   53 1
    57   32   54 1
@<TRIPOS>MOLECULE
ZINC01034428
 45 48 0 0 0
SMALL
NO_CHARGES


@<TRIPOS>ATOM
      1 C          -0.491    -2.547    -5.250  C    
      2 C           0.957    -2.398    -5.010  C    
      3 C           2.053    -3.154    -5.435  C    
      4 C           3.172    -2.534    -4.859  C    
      5 N           2.723    -1.468    -4.171  N    
      6 O           1.427    -1.383    -4.254  O    
      7 C           4.556    -2.846    -4.928  C    
      8 C           5.028    -4.183    -4.881  C    
      9 C           6.406    -4.465    -4.952  C    
     10 C           7.341    -3.415    -5.032  C    
     11 C           6.892    -2.080    -5.038  C    
     12 C           5.513    -1.799    -4.987  C    
     13 C           2.037    -4.308    -6.368  C    
     14 N           2.843    -4.023    -7.513  N    
     15 C           3.783    -4.796    -8.043  C    
     16 O           4.054    -5.899    -7.581  O    
     17 C           4.505    -4.332    -9.214  C    
     18 N           5.524    -3.376    -8.867  N    
     19 C           5.317    -2.082    -8.634  C    
     20 O           4.245    -1.491    -8.669  O    
     21 C           6.511    -1.482    -8.374  C    
     22 C           6.860    -0.151    -8.069  C    
     23 C           8.216     0.159    -7.836  C    
     24 C           9.203    -0.852    -7.910  C    
     25 C           8.840    -2.183    -8.214  C    
     26 C           7.480    -2.478    -8.445  C    
     27 C           6.823    -3.634    -8.747  C    
     28 O           7.373    -4.720    -8.890  O    
     29 H          -1.000    -2.625    -4.289  H    
     30 H          -0.731    -3.428    -5.840  H    
     31 H          -0.860    -1.661    -5.769  H    
     32 H           4.380    -4.963    -4.771  H    
     33 H           6.733    -5.435    -4.928  H    
     34 H           8.341    -3.619    -5.085  H    
     35 H           7.569    -1.315    -5.089  H    
     36 H           5.212    -0.819    -5.012  H    
     37 H           2.349    -5.210    -5.838  H    
     38 H           1.029    -4.490    -6.742  H    
     39 H           2.664    -3.189    -7.968  H    
     40 H           4.954    -5.187    -9.738  H    
     41 H           3.804    -3.886    -9.927  H    
     42 H           6.142     0.578    -8.012  H    
     43 H           8.488     1.120    -7.613  H    
     44 H          10.183    -0.617    -7.741  H    
     45 H           9.551    -2.915    -8.262  H    
@<TRIPOS>BOND
     1    1    2 1
     2    2    6 1
     3    2    3 2
     4    3    4 1
     5    3   13 1
     6    4    5 2
     7    4    7 1
     8    5    6 1
     9    7   12 ar
    10    7    8 ar
    11    8    9 ar
    12    9   10 ar
    13   10   11 ar
    14   11   12 ar
    15   13   14 1
    16   14   15 1
    17   15   16 2
    18   15   17 1
    19   17   18 1
    20   18   27 1
    21   18   19 1
    22   19   20 2
    23   19   21 1
    24   21   26 ar
    25   21   22 ar
    26   22   23 ar
    27   23   24 ar
    28   24   25 ar
    29   25   26 ar
    30   26   27 1
    31   27   28 2
    32    1   29 1
    33    1   30 1
    34    1   31 1
    35    8   32 1
    36    9   33 1
    37   10   34 1
    38   11   35 1
    39   12   36 1
    40   13   37 1
    41   13   38 1
    42   14   39 1
    43   17   40 1
    44   17   41 1
    45   22   42 1
    46   23   43 1
    47   24   44 1
    48   25   45 1
@<TRIPOS>MOLECULE
ZINC01045064
 51 54 0 0 0
SMALL
NO_CHARGES


@<TRIPOS>ATOM
      1 C           6.758     0.607    -4.665  C    
      2 O           7.391    -0.342    -5.544  O    
      3 C           7.197    -1.644    -5.165  C    
      4 C           8.177    -2.290    -4.389  C    
      5 C           8.019    -3.637    -4.017  C    
      6 C           6.873    -4.365    -4.413  C    
      7 C           5.896    -3.711    -5.201  C    
      8 C           6.061    -2.367    -5.597  C    
      9 O           5.095    -1.742    -6.338  O    
     10 C           5.228    -1.958    -7.755  C    
     11 C           6.700    -5.793    -4.030  C    
     12 C           5.557    -6.010    -3.004  C    
     13 N           5.502    -7.389    -2.559  N    
     14 C           4.959    -8.369    -3.267  C    
     15 O           4.454    -8.184    -4.368  O    
     16 C           5.064    -9.591    -2.697  C    
     17 C           4.660   -10.790    -3.165  C    
     18 C           3.955   -11.020    -4.341  C    
     19 C           4.636   -11.706    -5.371  C    
     20 C           4.008   -11.979    -6.596  C    
     21 C           2.680   -11.585    -6.807  C    
     22 C           1.964   -10.920    -5.789  C    
     23 C           2.597   -10.631    -4.539  C    
     24 C           1.828    -9.983    -3.534  C    
     25 C           0.490    -9.622    -3.761  C    
     26 C          -0.115    -9.908    -4.997  C    
     27 C           0.618   -10.549    -6.007  C    
     28 S           5.889    -9.523    -1.205  S    
     29 C           6.029    -7.845    -1.425  C    
     30 S           6.917    -6.967    -0.264  S    
     31 H           5.671     0.511    -4.705  H    
     32 H           7.027     1.609    -5.001  H    
     33 H           7.095     0.491    -3.630  H    
     34 H           9.014    -1.780    -4.095  H    
     35 H           8.747    -4.081    -3.451  H    
     36 H           5.058    -4.218    -5.502  H    
     37 H           6.195    -1.610    -8.127  H    
     38 H           4.445    -1.390    -8.258  H    
     39 H           5.102    -3.016    -8.007  H    
     40 H           6.495    -6.373    -4.935  H    
     41 H           7.625    -6.188    -3.599  H    
     42 H           5.704    -5.333    -2.162  H    
     43 H           4.600    -5.730    -3.451  H    
     44 H           4.940   -11.603    -2.665  H    
     45 H           5.606   -12.004    -5.246  H    
     46 H           4.515   -12.470    -7.333  H    
     47 H           2.239   -11.799    -7.707  H    
     48 H           2.230    -9.771    -2.618  H    
     49 H          -0.046    -9.154    -3.025  H    
     50 H          -1.090    -9.649    -5.158  H    
     51 H           0.157   -10.752    -6.898  H    
@<TRIPOS>BOND
     1    1    2 1
     2    2    3 1
     3    3    8 ar
     4    3    4 ar
     5    4    5 ar
     6    5    6 ar
     7    6    7 ar
     8    6   11 1
     9    7    8 ar
    10    8    9 1
    11    9   10 1
    12   11   12 1
    13   12   13 1
    14   13   29 1
    15   13   14 1
    16   14   15 2
    17   14   16 1
    18   16   17 2
    19   16   28 1
    20   17   18 1
    21   18   23 ar
    22   18   19 ar
    23   19   20 ar
    24   20   21 ar
    25   21   22 ar
    26   22   27 ar
    27   22   23 ar
    28   23   24 ar
    29   24   25 ar
    30   25   26 ar
    31   26   27 ar
    32   28   29 1
    33   29   30 2
    34    1   31 1
    35    1   32 1
    36    1   33 1
    37    4   34 1
    38    5   35 1
    39    7   36 1
    40   10   37 1
    41   10   38 1
    42   10   39 1
    43   11   40 1
    44   11   41 1
    45   12   42 1
    46   12   43 1
    47   17   44 1
    48   19   45 1
    49   20   46 1
    50   21   47 1
    51   24   48 1
    52   25   49 1
    53   26   50 1
    54   27   51 1
@<TRIPOS>MOLECULE
ZINC01059351
 37 39 0 0 0
SMALL
NO_CHARGES


@<TRIPOS>ATOM
      1 C           2.571    -7.425     0.105  C    
      2 C           1.746    -7.454     1.241  C    
      3 C           1.170    -6.263     1.718  C    
      4 C           1.407    -5.039     1.054  C    
      5 C           2.229    -4.994    -0.106  C    
      6 C           2.808    -6.208    -0.558  C    
      7 C           2.477    -3.784    -0.809  C    
      8 N           3.328    -3.641    -1.838  N    
      9 C           3.256    -2.359    -2.215  C    
     10 O           2.360    -1.723    -1.433  O    
     11 N           1.893    -2.591    -0.585  N    
     12 C           4.008    -1.751    -3.326  C    
     13 C           3.055    -1.211    -4.428  C    
     14 C           3.690    -0.663    -5.615  C    
     15 O           4.909    -0.686    -5.744  O    
     16 N           2.887    -0.212    -6.574  N    
     17 C           3.158     0.304    -7.812  C    
     18 C           4.374     0.951    -8.152  C    
     19 C           4.578     1.488    -9.438  C    
     20 C           3.563     1.397   -10.405  C    
     21 C           2.343     0.775   -10.085  C    
     22 C           2.134     0.235    -8.797  C    
     23 Cl          0.642    -0.515    -8.506  Cl   
     24 F           0.852    -3.971     1.559  F    
     25 H           2.997    -8.290    -0.237  H    
     26 H           1.567    -8.336     1.725  H    
     27 H           0.579    -6.290     2.553  H    
     28 H           3.412    -6.225    -1.386  H    
     29 H           4.615    -0.935    -2.926  H    
     30 H           4.678    -2.502    -3.754  H    
     31 H           2.396    -2.030    -4.744  H    
     32 H           2.428    -0.427    -3.986  H    
     33 H           1.940    -0.325    -6.386  H    
     34 H           5.118     1.066    -7.463  H    
     35 H           5.460     1.954    -9.671  H    
     36 H           3.704     1.792   -11.341  H    
     37 H           1.608     0.719   -10.799  H    
@<TRIPOS>BOND
     1    1    6 ar
     2    1    2 ar
     3    2    3 ar
     4    3    4 ar
     5    4    5 ar
     6    4   24 1
     7    5    6 ar
     8    5    7 1
     9    7   11 2
    10    7    8 1
    11    8    9 2
    12    9   10 1
    13    9   12 1
    14   10   11 1
    15   12   13 1
    16   13   14 1
    17   14   15 2
    18   14   16 1
    19   16   17 1
    20   17   22 ar
    21   17   18 ar
    22   18   19 ar
    23   19   20 ar
    24   20   21 ar
    25   21   22 ar
    26   22   23 1
    27    1   25 1
    28    2   26 1
    29    3   27 1
    30    6   28 1
    31   12   29 1
    32   12   30 1
    33   13   31 1
    34   13   32 1
    35   16   33 1
    36   18   34 1
    37   19   35 1
    38   20   36 1
    39   21   37 1
@<TRIPOS>MOLECULE
ZINC01061535
 34 34 0 0 0
SMALL
NO_CHARGES


@<TRIPOS>ATOM
      1 C           0.658    -6.432    -1.296  C    
      2 C           0.610    -7.091    -2.691  C    
      3 N           0.302    -6.154    -3.743  N    
      4 C          -0.998    -6.133    -4.371  C    
      5 C          -2.147    -5.693    -3.441  C    
      6 S           1.489    -5.061    -4.262  S    
      7 O           2.921    -5.485    -3.716  O    
      8 O           1.650    -5.185    -5.837  O    
      9 C           1.204    -3.346    -3.771  C    
     10 C           2.311    -2.447    -4.191  C    
     11 C           2.464    -2.070    -5.545  C    
     12 C           3.512    -1.216    -5.944  C    
     13 C           4.446    -0.709    -5.006  C    
     14 C           4.292    -1.102    -3.653  C    
     15 C           3.248    -1.954    -3.250  C    
     16 N           5.454     0.121    -5.399  N    
     17 O           6.261     0.570    -4.630  O    
     18 O           5.610     0.492    -6.639  O    
     19 H           1.421    -5.653    -1.264  H    
     20 H           0.897    -7.179    -0.536  H    
     21 H          -0.307    -5.986    -1.054  H    
     22 H           1.573    -7.566    -2.888  H    
     23 H          -0.122    -7.903    -2.659  H    
     24 H          -1.011    -5.461    -5.233  H    
     25 H          -1.217    -7.133    -4.755  H    
     26 H          -2.329    -6.443    -2.671  H    
     27 H          -3.066    -5.566    -4.021  H    
     28 H          -1.907    -4.743    -2.962  H    
     29 H           0.271    -2.998    -4.207  H    
     30 H           1.081    -3.333    -2.689  H    
     31 H           1.799    -2.401    -6.252  H    
     32 H           3.581    -0.968    -6.933  H    
     33 H           4.945    -0.767    -2.941  H    
     34 H           3.169    -2.211    -2.260  H    
@<TRIPOS>BOND
     1    1    2 1
     2    2    3 1
     3    3    4 1
     4    3    6 1
     5    4    5 1
     6    6    7 2
     7    6    8 2
     8    6    9 1
     9    9   10 1
    10   10   15 ar
    11   10   11 ar
    12   11   12 ar
    13   12   13 ar
    14   13   14 ar
    15   13   16 1
    16   14   15 ar
    17   16   17 2
    18   16   18 1
    19    1   19 1
    20    1   20 1
    21    1   21 1
    22    2   22 1
    23    2   23 1
    24    4   24 1
    25    4   25 1
    26    5   26 1
    27    5   27 1
    28    5   28 1
    29    9   29 1
    30    9   30 1
    31   11   31 1
    32   12   32 1
    33   14   33 1
    34   15   34 1
@<TRIPOS>MOLECULE
ZINC01074835
 48 52 0 0 0
SMALL
NO_CHARGES


@<TRIPOS>ATOM
      1 C          -1.176    -8.410    -2.965  C    
      2 C          -1.184    -7.717    -4.190  C    
      3 C          -0.100    -6.888    -4.536  C    
      4 C           1.005    -6.743    -3.663  C    
      5 C           0.999    -7.448    -2.435  C    
      6 C          -0.084    -8.276    -2.088  C    
      7 C           2.143    -5.872    -4.042  C    
      8 O           1.678    -4.515    -4.152  O    
      9 C           2.539    -3.495    -4.493  C    
     10 C           3.948    -3.590    -4.596  C    
     11 C           4.727    -2.456    -4.895  C    
     12 C           4.117    -1.202    -5.125  C    
     13 C           2.717    -1.102    -5.008  C    
     14 C           1.938    -2.236    -4.702  C    
     15 N           4.813    -0.047    -5.329  N    
     16 C           5.819     0.225    -6.151  C    
     17 O           6.222     1.376    -6.053  O    
     18 C           6.382    -0.654    -7.184  C    
     19 C           5.353    -1.004    -8.318  C    
     20 C           5.474     0.202    -9.258  C    
     21 C           6.974    -0.019    -9.458  C    
     22 C           7.579    -0.082    -8.035  C    
     23 C           8.643    -1.068    -8.257  C    
     24 O           9.680    -1.277    -7.417  O    
     25 O           8.340    -1.890    -9.285  O    
     26 C           7.118    -1.496    -9.904  C    
     27 C           5.879    -2.153    -9.231  C    
     28 H          -1.965    -9.009    -2.711  H    
     29 H          -1.979    -7.814    -4.826  H    
     30 H          -0.119    -6.390    -5.431  H    
     31 H           1.782    -7.360    -1.781  H    
     32 H          -0.077    -8.780    -1.198  H    
     33 H           2.933    -5.926    -3.289  H    
     34 H           2.549    -6.213    -4.998  H    
     35 H           4.427    -4.475    -4.430  H    
     36 H           5.742    -2.548    -4.889  H    
     37 H           2.249    -0.200    -5.138  H    
     38 H           0.922    -2.133    -4.616  H    
     39 H           4.473     0.718    -4.837  H    
     40 H           6.707    -1.567    -6.684  H    
     41 H           4.332    -1.177    -7.971  H    
     42 H           4.899     0.102   -10.183  H    
     43 H           5.240     1.157    -8.781  H    
     44 H           7.455     0.702   -10.128  H    
     45 H           7.984     0.883    -7.715  H    
     46 H           7.140    -1.615   -10.991  H    
     47 H           6.142    -3.045    -8.652  H    
     48 H           5.131    -2.427    -9.978  H    
@<TRIPOS>BOND
     1    1    6 ar
     2    1    2 ar
     3    2    3 ar
     4    3    4 ar
     5    4    5 ar
     6    4    7 1
     7    5    6 ar
     8    7    8 1
     9    8    9 1
    10    9   14 ar
    11    9   10 ar
    12   10   11 ar
    13   11   12 ar
    14   12   13 ar
    15   12   15 1
    16   13   14 ar
    17   15   16 1
    18   16   17 2
    19   16   18 1
    20   18   22 1
    21   18   19 1
    22   19   27 1
    23   19   20 1
    24   20   21 1
    25   21   26 1
    26   21   22 1
    27   22   23 1
    28   23   24 2
    29   23   25 1
    30   25   26 1
    31   26   27 1
    32    1   28 1
    33    2   29 1
    34    3   30 1
    35    5   31 1
    36    6   32 1
    37    7   33 1
    38    7   34 1
    39   10   35 1
    40   11   36 1
    41   13   37 1
    42   14   38 1
    43   15   39 1
    44   18   40 1
    45   19   41 1
    46   20   42 1
    47   20   43 1
    48   21   44 1
    49   22   45 1
    50   26   46 1
    51   27   47 1
    52   27   48 1
@<TRIPOS>MOLECULE
ZINC01089368
 30 31 0 0 0
SMALL
NO_CHARGES


@<TRIPOS>ATOM
      1 C          -1.845    -8.715    -3.106  C    
      2 N          -1.310    -7.435    -2.776  N    
      3 C          -1.632    -6.669    -1.715  C    
      4 C          -0.878    -5.510    -1.787  C    
      5 C          -0.095    -5.636    -2.938  C    
      6 N          -0.406    -6.832    -3.488  N    
      7 C           0.845    -4.772    -3.475  C    
      8 O           1.540    -5.187    -4.392  O    
      9 N           0.930    -3.511    -3.066  N    
     10 N           1.728    -2.580    -3.433  N    
     11 C           2.822    -2.524    -4.108  C    
     12 C           3.470    -1.323    -4.402  C    
     13 C           2.902    -0.073    -4.030  C    
     14 C           3.547     1.141    -4.323  C    
     15 C           4.780     1.134    -4.991  C    
     16 C           5.361    -0.086    -5.372  C    
     17 C           4.714    -1.306    -5.094  C    
     18 O           5.354    -2.433    -5.515  O    
     19 Br          2.765     2.758    -3.841  Br   
     20 Br         -0.936    -4.158    -0.501  Br   
     21 H          -2.330    -8.661    -4.084  H    
     22 H          -2.582    -9.046    -2.369  H    
     23 H          -1.038    -9.454    -3.147  H    
     24 H          -2.302    -6.895    -0.979  H    
     25 H           0.255    -3.233    -2.434  H    
     26 H           3.233    -3.377    -4.402  H    
     27 H           2.004    -0.032    -3.545  H    
     28 H           5.254     2.014    -5.202  H    
     29 H           6.257    -0.082    -5.863  H    
     30 H           4.658    -3.100    -5.690  H    
@<TRIPOS>BOND
     1    1    2 1
     2    2    6 1
     3    2    3 1
     4    3    4 2
     5    4    5 1
     6    4   20 1
     7    5    6 2
     8    5    7 1
     9    7    8 2
    10    7    9 1
    11    9   10 1
    12   10   11 2
    13   11   12 1
    14   12   17 ar
    15   12   13 ar
    16   13   14 ar
    17   14   15 ar
    18   14   19 1
    19   15   16 ar
    20   16   17 ar
    21   17   18 1
    22    1   21 1
    23    1   22 1
    24    1   23 1
    25    3   24 1
    26    9   25 1
    27   11   26 1
    28   13   27 1
    29   15   28 1
    30   16   29 1
    31   18   30 1
@<TRIPOS>MOLECULE
ZINC01091762
 52 55 0 0 0
SMALL
NO_CHARGES


@<TRIPOS>ATOM
      1 C           1.414    -7.086    -6.494  C    
      2 C           2.917    -6.996    -6.138  C    
      3 C           3.720    -6.438    -7.201  C    
      4 O           3.766    -7.015    -8.282  O    
      5 N           4.448    -5.361    -6.921  N    
      6 C           4.353    -4.919    -5.558  C    
      7 S           3.141    -5.946    -4.693  S    
      8 C           3.982    -3.476    -5.426  C    
      9 C           2.786    -2.973    -5.997  C    
     10 C           2.446    -1.612    -5.880  C    
     11 C           3.293    -0.721    -5.190  C    
     12 C           4.504    -1.206    -4.646  C    
     13 C           4.840    -2.570    -4.757  C    
     14 O           2.943     0.605    -5.128  O    
     15 C           2.661     1.046    -3.860  C    
     16 C           1.525     0.598    -3.140  C    
     17 C           1.262     1.094    -1.849  C    
     18 C           2.119     2.051    -1.272  C    
     19 C           3.236     2.520    -1.994  C    
     20 C           3.501     2.023    -3.283  C    
     21 C           5.265    -4.728    -7.846  C    
     22 C           4.755    -4.335    -9.107  C    
     23 C           5.574    -3.691   -10.055  C    
     24 C           6.930    -3.414    -9.766  C    
     25 C           7.429    -3.766    -8.492  C    
     26 C           6.612    -4.420    -7.550  C    
     27 N           7.801    -2.780   -10.612  N    
     28 C           7.800    -2.710   -11.936  C    
     29 O           6.976    -3.283   -12.635  O    
     30 C           8.872    -1.985   -12.583  C    
     31 H           0.849    -7.482    -5.648  H    
     32 H           1.265    -7.754    -7.346  H    
     33 H           1.014    -6.101    -6.749  H    
     34 H           3.291    -7.994    -5.894  H    
     35 H           5.311    -5.123    -5.066  H    
     36 H           2.156    -3.597    -6.506  H    
     37 H           1.580    -1.267    -6.302  H    
     38 H           5.144    -0.565    -4.165  H    
     39 H           5.719    -2.897    -4.345  H    
     40 H           0.892    -0.094    -3.555  H    
     41 H           0.447     0.757    -1.326  H    
     42 H           1.931     2.407    -0.331  H    
     43 H           3.856     3.223    -1.579  H    
     44 H           4.311     2.372    -3.805  H    
     45 H           3.773    -4.510    -9.342  H    
     46 H           5.158    -3.409   -10.945  H    
     47 H           8.400    -3.557    -8.243  H    
     48 H           7.016    -4.682    -6.649  H    
     49 H           8.568    -2.369   -10.181  H    
     50 H           8.859    -0.941   -12.261  H    
     51 H           8.777    -2.006   -13.673  H    
     52 H           9.833    -2.426   -12.313  H    
@<TRIPOS>BOND
     1    1    2 1
     2    2    7 1
     3    2    3 1
     4    3    4 2
     5    3    5 1
     6    5    6 1
     7    5   21 1
     8    6    7 1
     9    6    8 1
    10    8   13 ar
    11    8    9 ar
    12    9   10 ar
    13   10   11 ar
    14   11   12 ar
    15   11   14 1
    16   12   13 ar
    17   14   15 1
    18   15   20 ar
    19   15   16 ar
    20   16   17 ar
    21   17   18 ar
    22   18   19 ar
    23   19   20 ar
    24   21   26 ar
    25   21   22 ar
    26   22   23 ar
    27   23   24 ar
    28   24   25 ar
    29   24   27 1
    30   25   26 ar
    31   27   28 1
    32   28   29 2
    33   28   30 1
    34    1   31 1
    35    1   32 1
    36    1   33 1
    37    2   34 1
    38    6   35 1
    39    9   36 1
    40   10   37 1
    41   12   38 1
    42   13   39 1
    43   16   40 1
    44   17   41 1
    45   18   42 1
    46   19   43 1
    47   20   44 1
    48   22   45 1
    49   23   46 1
    50   25   47 1
    51   26   48 1
    52   27   49 1
    53   30   50 1
    54   30   51 1
    55   30   52 1
@<TRIPOS>MOLECULE
ZINC01092605
 43 45 0 0 0
SMALL
NO_CHARGES


@<TRIPOS>ATOM
      1 C           4.678   -13.870    -5.415  C    
      2 C           4.567   -12.336    -5.488  C    
      3 O           3.634   -11.883    -4.487  O    
      4 C           3.625   -10.528    -4.304  C    
      5 C           3.027    -9.656    -5.241  C    
      6 C           3.001    -8.270    -5.002  C    
      7 C           3.551    -7.739    -3.811  C    
      8 C           4.133    -8.618    -2.866  C    
      9 C           4.169   -10.003    -3.112  C    
     10 N           3.501    -6.382    -3.568  N    
     11 C           4.343    -5.525    -4.195  C    
     12 O           5.210    -5.987    -4.935  O    
     13 C           4.263    -4.144    -3.998  C    
     14 C           4.977    -3.282    -4.767  C    
     15 N           4.899    -1.982    -4.702  N    
     16 C           5.709    -1.099    -5.411  C    
     17 C           5.330     0.291    -5.103  C    
     18 C           6.128     1.285    -4.524  C    
     19 C           5.493     2.531    -4.371  C    
     20 C           4.171     2.566    -4.817  C    
     21 S           3.795     1.003    -5.423  S    
     22 C           3.374    -3.739    -3.013  C    
     23 O           3.279    -2.592    -2.597  O    
     24 N           2.567    -4.608    -2.416  N    
     25 C           2.606    -5.904    -2.684  C    
     26 O           1.799    -6.601    -2.084  O    
     27 H           5.112   -14.162    -4.455  H    
     28 H           5.319   -14.239    -6.223  H    
     29 H           3.690   -14.332    -5.511  H    
     30 H           5.565   -11.905    -5.338  H    
     31 H           4.211   -12.062    -6.486  H    
     32 H           2.604   -10.026    -6.097  H    
     33 H           2.569    -7.649    -5.691  H    
     34 H           4.526    -8.254    -1.994  H    
     35 H           4.583   -10.632    -2.419  H    
     36 H           5.592    -3.655    -5.455  H    
     37 H           4.241    -1.607    -4.162  H    
     38 H           6.755    -1.267    -5.148  H    
     39 H           5.590    -1.259    -6.483  H    
     40 H           7.095     1.126    -4.238  H    
     41 H           5.960     3.344    -3.972  H    
     42 H           3.540     3.371    -4.796  H    
     43 H           1.944    -4.285    -1.746  H    
@<TRIPOS>BOND
     1    1    2 1
     2    2    3 1
     3    3    4 1
     4    4    9 ar
     5    4    5 ar
     6    5    6 ar
     7    6    7 ar
     8    7    8 ar
     9    7   10 1
    10    8    9 ar
    11   10   25 1
    12   10   11 1
    13   11   12 2
    14   11   13 1
    15   13   14 2
    16   13   22 1
    17   14   15 1
    18   15   16 1
    19   16   17 1
    20   17   21 1
    21   17   18 2
    22   18   19 1
    23   19   20 2
    24   20   21 1
    25   22   23 2
    26   22   24 1
    27   24   25 1
    28   25   26 2
    29    1   27 1
    30    1   28 1
    31    1   29 1
    32    2   30 1
    33    2   31 1
    34    5   32 1
    35    6   33 1
    36    8   34 1
    37    9   35 1
    38   14   36 1
    39   15   37 1
    40   16   38 1
    41   16   39 1
    42   18   40 1
    43   19   41 1
    44   20   42 1
    45   24   43 1
@<TRIPOS>MOLECULE
ZINC01095233
 44 46 0 0 0
SMALL
NO_CHARGES


@<TRIPOS>ATOM
      1 C           9.594    -2.578    -7.025  C    
      2 C           9.250    -3.476    -6.000  C    
      3 C           8.236    -3.139    -5.081  C    
      4 C           7.561    -1.905    -5.186  C    
      5 C           7.918    -1.007    -6.215  C    
      6 C           8.934    -1.342    -7.130  C    
      7 N           6.574    -1.583    -4.294  N    
      8 C           6.758    -0.511    -3.345  C    
      9 C           6.567    -0.940    -1.961  C    
     10 O           7.209    -1.932    -1.626  O    
     11 N           5.772    -0.335    -1.064  N    
     12 C           5.079     0.900    -1.280  C    
     13 C           4.541     1.329     0.097  C    
     14 C           4.430     0.011     0.868  C    
     15 C           5.530    -0.868     0.246  C    
     16 S           5.031    -2.234    -4.555  S    
     17 O           5.166    -3.737    -5.063  O    
     18 O           4.236    -2.382    -3.184  O    
     19 C           4.106    -1.317    -5.710  C    
     20 C           3.207    -0.318    -5.282  C    
     21 C           2.484     0.433    -6.224  C    
     22 C           2.655     0.189    -7.602  C    
     23 C           3.553    -0.807    -8.032  C    
     24 C           4.279    -1.554    -7.088  C    
     25 Cl          1.785     1.094    -8.741  Cl   
     26 H          10.323    -2.827    -7.698  H    
     27 H           9.729    -4.374    -5.923  H    
     28 H           7.990    -3.802    -4.340  H    
     29 H           7.437    -0.109    -6.306  H    
     30 H           9.181    -0.691    -7.878  H    
     31 H           7.769    -0.099    -3.410  H    
     32 H           6.078     0.294    -3.626  H    
     33 H           5.750     1.675    -1.662  H    
     34 H           4.252     0.745    -1.978  H    
     35 H           5.257     1.994     0.593  H    
     36 H           3.575     1.840     0.019  H    
     37 H           4.578     0.155     1.941  H    
     38 H           3.447    -0.438     0.699  H    
     39 H           5.190    -1.907     0.193  H    
     40 H           6.443    -0.817     0.843  H    
     41 H           3.076    -0.133    -4.285  H    
     42 H           1.837     1.154    -5.903  H    
     43 H           3.685    -0.991    -9.027  H    
     44 H           4.932    -2.269    -7.414  H    
@<TRIPOS>BOND
     1    1    6 ar
     2    1    2 ar
     3    2    3 ar
     4    3    4 ar
     5    4    5 ar
     6    4    7 1
     7    5    6 ar
     8    7    8 1
     9    7   16 1
    10    8    9 1
    11    9   10 2
    12    9   11 1
    13   11   15 1
    14   11   12 1
    15   12   13 1
    16   13   14 1
    17   14   15 1
    18   16   17 2
    19   16   18 2
    20   16   19 1
    21   19   24 ar
    22   19   20 ar
    23   20   21 ar
    24   21   22 ar
    25   22   23 ar
    26   22   25 1
    27   23   24 ar
    28    1   26 1
    29    2   27 1
    30    3   28 1
    31    5   29 1
    32    6   30 1
    33    8   31 1
    34    8   32 1
    35   12   33 1
    36   12   34 1
    37   13   35 1
    38   13   36 1
    39   14   37 1
    40   14   38 1
    41   15   39 1
    42   15   40 1
    43   20   41 1
    44   21   42 1
    45   23   43 1
    46   24   44 1
@<TRIPOS>MOLECULE
ZINC01100097
 37 38 0 0 0
SMALL
NO_CHARGES


@<TRIPOS>ATOM
      1 C           2.927     1.658    -7.638  C    
      2 C           3.058     0.334    -6.854  C    
      3 C           4.105     0.404    -5.710  C    
      4 N           4.302    -0.883    -5.075  N    
      5 C           5.077    -1.823    -5.601  C    
      6 O           5.681    -1.700    -6.659  O    
      7 C           5.186    -3.058    -4.880  C    
      8 S           4.161    -2.877    -3.421  S    
      9 C           3.731    -1.269    -3.905  C    
     10 N           2.873    -0.478    -3.207  N    
     11 C           2.146    -0.508    -2.050  C    
     12 C           2.195    -1.538    -1.082  C    
     13 C           1.402    -1.482     0.078  C    
     14 C           0.542    -0.389     0.296  C    
     15 C           0.498     0.661    -0.648  C    
     16 C           1.297     0.598    -1.811  C    
     17 O          -0.183    -0.327     1.451  O    
     18 C          -1.487    -0.929     1.358  C    
     19 C          -2.060    -1.090     2.779  C    
     20 H           2.662     2.477    -6.967  H    
     21 H           2.146     1.563    -8.395  H    
     22 H           3.867     1.897    -8.138  H    
     23 H           2.084     0.082    -6.428  H    
     24 H           3.334    -0.454    -7.560  H    
     25 H           5.059     0.764    -6.110  H    
     26 H           3.778     1.148    -4.980  H    
     27 H           4.820    -3.892    -5.484  H    
     28 H           6.220    -3.244    -4.582  H    
     29 H           2.809    -2.341    -1.192  H    
     30 H           1.456    -2.237     0.770  H    
     31 H          -0.108     1.468    -0.484  H    
     32 H           1.248     1.366    -2.485  H    
     33 H          -2.156    -0.292     0.771  H    
     34 H          -1.442    -1.921     0.895  H    
     35 H          -1.385    -1.707     3.377  H    
     36 H          -3.037    -1.575     2.734  H    
     37 H          -2.169    -0.113     3.258  H    
@<TRIPOS>BOND
     1    1    2 1
     2    2    3 1
     3    3    4 1
     4    4    9 1
     5    4    5 1
     6    5    6 2
     7    5    7 1
     8    7    8 1
     9    8    9 1
    10    9   10 2
    11   10   11 1
    12   11   16 ar
    13   11   12 ar
    14   12   13 ar
    15   13   14 ar
    16   14   15 ar
    17   14   17 1
    18   15   16 ar
    19   17   18 1
    20   18   19 1
    21    1   20 1
    22    1   21 1
    23    1   22 1
    24    2   23 1
    25    2   24 1
    26    3   25 1
    27    3   26 1
    28    7   27 1
    29    7   28 1
    30   12   29 1
    31   13   30 1
    32   15   31 1
    33   16   32 1
    34   18   33 1
    35   18   34 1
    36   19   35 1
    37   19   36 1
    38   19   37 1
@<TRIPOS>MOLECULE
ZINC01105580
 41 43 0 0 0
SMALL
NO_CHARGES


@<TRIPOS>ATOM
      1 C           3.924    -5.084    -4.140  C    
      2 S           2.763    -4.740    -5.483  S    
      3 C           3.766    -5.313    -6.797  C    
      4 C           4.475    -4.342    -7.538  C    
      5 C           5.271    -4.725    -8.633  C    
      6 C           5.361    -6.078    -8.993  C    
      7 C           4.658    -7.052    -8.258  C    
      8 C           3.856    -6.690    -7.143  C    
      9 N           3.133    -7.589    -6.402  N    
     10 C           3.289    -8.896    -6.233  C    
     11 O           4.185    -9.556    -6.743  O    
     12 C           2.468    -9.525    -5.349  C    
     13 C           1.494   -10.375    -5.759  C    
     14 C           1.107   -10.644    -7.066  C    
     15 C           0.183   -11.619    -7.449  C    
     16 C           0.060   -11.563    -8.828  C    
     17 C           0.908   -10.552    -9.264  C    
     18 O           1.532   -10.007    -8.194  O    
     19 C           2.663    -9.255    -3.978  C    
     20 C           3.966    -9.232    -3.408  C    
     21 C           4.160    -8.925    -2.049  C    
     22 C           3.058    -8.629    -1.230  C    
     23 C           1.761    -8.643    -1.771  C    
     24 C           1.566    -8.950    -3.130  C    
     25 H           4.143    -6.152    -4.087  H    
     26 H           3.471    -4.769    -3.199  H    
     27 H           4.853    -4.527    -4.290  H    
     28 H           4.407    -3.350    -7.297  H    
     29 H           5.780    -4.017    -9.167  H    
     30 H           5.929    -6.354    -9.799  H    
     31 H           4.710    -8.019    -8.573  H    
     32 H           2.431    -7.197    -5.859  H    
     33 H           0.995   -10.870    -5.058  H    
     34 H          -0.316   -12.262    -6.827  H    
     35 H          -0.540   -12.150    -9.409  H    
     36 H           1.042   -10.260   -10.233  H    
     37 H           4.786    -9.445    -3.982  H    
     38 H           5.106    -8.913    -1.658  H    
     39 H           3.201    -8.400    -0.242  H    
     40 H           0.958    -8.421    -1.176  H    
     41 H           0.613    -8.923    -3.502  H    
@<TRIPOS>BOND
     1    1    2 1
     2    2    3 1
     3    3    8 ar
     4    3    4 ar
     5    4    5 ar
     6    5    6 ar
     7    6    7 ar
     8    7    8 ar
     9    8    9 1
    10    9   10 1
    11   10   11 2
    12   10   12 1
    13   12   13 2
    14   12   19 1
    15   13   14 1
    16   14   18 1
    17   14   15 2
    18   15   16 1
    19   16   17 2
    20   17   18 1
    21   19   24 ar
    22   19   20 ar
    23   20   21 ar
    24   21   22 ar
    25   22   23 ar
    26   23   24 ar
    27    1   25 1
    28    1   26 1
    29    1   27 1
    30    4   28 1
    31    5   29 1
    32    6   30 1
    33    7   31 1
    34    9   32 1
    35   13   33 1
    36   15   34 1
    37   16   35 1
    38   17   36 1
    39   20   37 1
    40   21   38 1
    41   22   39 1
    42   23   40 1
    43   24   41 1
@<TRIPOS>MOLECULE
ZINC01123195
 41 43 0 0 0
SMALL
NO_CHARGES


@<TRIPOS>ATOM
      1 C           0.568    -8.745    -3.916  C    
      2 C           1.408    -7.556    -3.610  C    
      3 C           2.208    -7.535    -2.447  C    
      4 C           2.982    -6.406    -2.131  C    
      5 C           2.956    -5.280    -2.968  C    
      6 C           2.156    -5.257    -4.136  C    
      7 C           1.403    -6.422    -4.464  C    
      8 O           0.642    -6.470    -5.609  O    
      9 C           1.395    -6.850    -6.772  C    
     10 C           2.113    -4.106    -4.920  C    
     11 O           1.041    -3.772    -5.416  O    
     12 N           3.220    -3.407    -5.151  N    
     13 C           3.375    -2.291    -5.899  C    
     14 N           4.588    -1.744    -6.121  N    
     15 C           4.642    -0.636    -6.914  C    
     16 C           3.374    -0.228    -7.367  C    
     17 S           2.217    -1.331    -6.740  S    
     18 C           5.885    -0.007    -7.233  C    
     19 C           7.040    -0.290    -6.464  C    
     20 C           8.279     0.291    -6.777  C    
     21 C           8.392     1.167    -7.867  C    
     22 C           7.268     1.483    -8.669  C    
     23 C           6.025     0.884    -8.329  C    
     24 N           7.387     2.330    -9.732  N    
     25 O           6.458     2.615   -10.440  O    
     26 O           8.520     2.892   -10.059  O    
     27 Br          4.013    -6.395    -0.580  Br   
     28 H          -0.485    -8.438    -3.989  H    
     29 H           0.640    -9.513    -3.141  H    
     30 H           0.870    -9.190    -4.861  H    
     31 H           2.239    -8.342    -1.820  H    
     32 H           3.504    -4.460    -2.688  H    
     33 H           2.114    -6.076    -7.047  H    
     34 H           0.693    -6.970    -7.601  H    
     35 H           1.920    -7.796    -6.632  H    
     36 H           4.031    -3.759    -4.754  H    
     37 H           3.151     0.571    -7.961  H    
     38 H           6.992    -0.920    -5.660  H    
     39 H           9.101     0.066    -6.211  H    
     40 H           9.310     1.570    -8.067  H    
     41 H           5.215     1.079    -8.919  H    
@<TRIPOS>BOND
     1    1    2 1
     2    2    7 ar
     3    2    3 ar
     4    3    4 ar
     5    4    5 ar
     6    4   27 1
     7    5    6 ar
     8    6    7 ar
     9    6   10 1
    10    7    8 1
    11    8    9 1
    12   10   11 2
    13   10   12 1
    14   12   13 1
    15   13   17 1
    16   13   14 2
    17   14   15 1
    18   15   16 2
    19   15   18 1
    20   16   17 1
    21   18   23 ar
    22   18   19 ar
    23   19   20 ar
    24   20   21 ar
    25   21   22 ar
    26   22   23 ar
    27   22   24 1
    28   24   25 2
    29   24   26 1
    30    1   28 1
    31    1   29 1
    32    1   30 1
    33    3   31 1
    34    5   32 1
    35    9   33 1
    36    9   34 1
    37    9   35 1
    38   12   36 1
    39   16   37 1
    40   19   38 1
    41   20   39 1
    42   21   40 1
    43   23   41 1
@<TRIPOS>MOLECULE
ZINC01125780
 40 41 0 0 0
SMALL
NO_CHARGES


@<TRIPOS>ATOM
      1 C          -4.181    -5.172    -2.511  C    
      2 S          -3.508    -5.300    -4.189  S    
      3 C          -1.818    -5.298    -3.765  C    
      4 C          -1.011    -4.203    -4.131  C    
      5 C           0.364    -4.198    -3.830  C    
      6 C           0.979    -5.281    -3.147  C    
      7 C           0.143    -6.374    -2.792  C    
      8 C          -1.230    -6.390    -3.104  C    
      9 C           2.359    -5.265    -2.862  C    
     10 S           3.091    -6.348    -1.760  S    
     11 N           3.199    -4.478    -3.506  N    
     12 C           3.757    -4.900    -4.735  C    
     13 C           3.759    -3.740    -5.761  C    
     14 C           3.767    -2.123    -3.896  C    
     15 C           3.717    -3.310    -2.897  C    
     16 C           4.526    -1.409    -6.188  C    
     17 C           5.597    -0.347    -5.823  C    
     18 O           5.760     0.587    -6.886  O    
     19 N           4.419    -2.521    -5.187  N    
     20 H          -3.936    -6.068    -1.934  H    
     21 H          -5.265    -5.088    -2.576  H    
     22 H          -3.783    -4.287    -2.003  H    
     23 H          -1.418    -3.405    -4.620  H    
     24 H           0.908    -3.381    -4.109  H    
     25 H           0.523    -7.196    -2.318  H    
     26 H          -1.796    -7.208    -2.850  H    
     27 H           4.789    -5.219    -4.564  H    
     28 H           3.221    -5.750    -5.175  H    
     29 H           4.300    -4.078    -6.651  H    
     30 H           2.730    -3.514    -6.058  H    
     31 H           2.751    -1.764    -4.079  H    
     32 H           4.326    -1.312    -3.424  H    
     33 H           3.133    -3.002    -2.023  H    
     34 H           4.734    -3.514    -2.551  H    
     35 H           3.554    -0.921    -6.325  H    
     36 H           4.823    -1.820    -7.160  H    
     37 H           5.303     0.209    -4.931  H    
     38 H           6.558    -0.832    -5.638  H    
     39 H           6.037     0.049    -7.660  H    
     40 H           5.377    -2.793    -4.958  H    
@<TRIPOS>BOND
     1    1    2 1
     2    2    3 1
     3    3    8 ar
     4    3    4 ar
     5    4    5 ar
     6    5    6 ar
     7    6    7 ar
     8    6    9 1
     9    7    8 ar
    10    9   10 2
    11    9   11 1
    12   11   15 1
    13   11   12 1
    14   12   13 1
    15   13   19 1
    16   14   15 1
    17   14   19 1
    18   16   17 1
    19   16   19 1
    20   17   18 1
    21    1   20 1
    22    1   21 1
    23    1   22 1
    24    4   23 1
    25    5   24 1
    26    7   25 1
    27    8   26 1
    28   12   27 1
    29   12   28 1
    30   13   29 1
    31   13   30 1
    32   14   31 1
    33   14   32 1
    34   15   33 1
    35   15   34 1
    36   16   35 1
    37   16   36 1
    38   17   37 1
    39   17   38 1
    40   18   39 1
    41   19   40 1
@<TRIPOS>MOLECULE
ZINC01135146
 51 54 0 0 0
SMALL
NO_CHARGES


@<TRIPOS>ATOM
      1 C           2.327    -7.629     3.048  C    
      2 C           3.487    -6.853     2.387  C    
      3 O           3.008    -5.557     1.978  O    
      4 C           3.826    -4.905     1.098  C    
      5 C           3.472    -4.868    -0.263  C    
      6 C           4.266    -4.162    -1.183  C    
      7 C           5.430    -3.479    -0.759  C    
      8 C           5.766    -3.508     0.612  C    
      9 C           4.971    -4.210     1.535  C    
     10 N           6.264    -2.779    -1.577  N    
     11 C           6.391    -2.507    -2.894  C    
     12 N           7.374    -1.702    -3.308  N    
     13 C           7.385    -1.484    -4.598  C    
     14 O           8.147    -0.634    -5.041  O    
     15 C           6.411    -2.136    -5.275  C    
     16 C           6.115    -2.104    -6.590  C    
     17 C           6.850    -1.525    -7.624  C    
     18 C           6.178    -0.797    -8.629  C    
     19 C           6.886    -0.233    -9.702  C    
     20 C           8.295    -0.374    -9.849  C    
     21 C           8.955    -1.132    -8.833  C    
     22 C           8.245    -1.706    -7.761  C    
     23 F          10.237    -1.381    -8.842  F    
     24 N           8.944     0.200   -10.928  N    
     25 C           8.275     0.850   -12.025  C    
     26 C           9.338     1.133   -13.101  C    
     27 C          10.636     1.190   -12.297  C    
     28 C          10.366     0.234   -11.119  C    
     29 S           5.418    -3.054    -4.219  S    
     30 H           1.944    -7.071     3.908  H    
     31 H           2.679    -8.608     3.387  H    
     32 H           1.516    -7.769     2.328  H    
     33 H           4.298    -6.737     3.109  H    
     34 H           3.854    -7.442     1.538  H    
     35 H           2.630    -5.349    -0.582  H    
     36 H           3.965    -4.145    -2.155  H    
     37 H           6.589    -3.006     0.948  H    
     38 H           5.222    -4.211     2.524  H    
     39 H           7.995    -1.278    -2.697  H    
     40 H           5.253    -2.514    -6.860  H    
     41 H           5.166    -0.660    -8.579  H    
     42 H           6.334     0.297   -10.375  H    
     43 H           8.751    -2.279    -7.083  H    
     44 H           7.501     0.209   -12.458  H    
     45 H           7.827     1.787   -11.682  H    
     46 H           9.383     0.309   -13.821  H    
     47 H           9.149     2.071   -13.631  H    
     48 H          11.498     0.878   -12.895  H    
     49 H          10.797     2.208   -11.924  H    
     50 H          10.884     0.617   -10.233  H    
     51 H          10.728    -0.772   -11.359  H    
@<TRIPOS>BOND
     1    1    2 1
     2    2    3 1
     3    3    4 1
     4    4    9 ar
     5    4    5 ar
     6    5    6 ar
     7    6    7 ar
     8    7    8 ar
     9    7   10 1
    10    8    9 ar
    11   10   11 2
    12   11   29 1
    13   11   12 1
    14   12   13 1
    15   13   14 2
    16   13   15 1
    17   15   16 2
    18   15   29 1
    19   16   17 1
    20   17   22 ar
    21   17   18 ar
    22   18   19 ar
    23   19   20 ar
    24   20   21 ar
    25   20   24 1
    26   21   22 ar
    27   21   23 1
    28   24   28 1
    29   24   25 1
    30   25   26 1
    31   26   27 1
    32   27   28 1
    33    1   30 1
    34    1   31 1
    35    1   32 1
    36    2   33 1
    37    2   34 1
    38    5   35 1
    39    6   36 1
    40    8   37 1
    41    9   38 1
    42   12   39 1
    43   16   40 1
    44   18   41 1
    45   19   42 1
    46   22   43 1
    47   25   44 1
    48   25   45 1
    49   26   46 1
    50   26   47 1
    51   27   48 1
    52   27   49 1
    53   28   50 1
    54   28   51 1
@<TRIPOS>MOLECULE
ZINC01142119
 42 44 0 0 0
SMALL
NO_CHARGES


@<TRIPOS>ATOM
      1 C           1.836    -1.190    -0.903  C    
      2 C           1.480    -2.630    -1.367  C    
      3 C           0.204    -2.732    -2.122  C    
      4 O          -0.193    -3.953    -2.559  O    
      5 O          -0.578    -1.637    -2.352  O    
      6 C          -1.822    -1.624    -3.064  C    
      7 N           2.585    -3.230    -2.107  N    
      8 C           2.985    -2.870    -3.322  C    
      9 O           2.450    -1.962    -3.953  O    
     10 C           4.003    -3.609    -3.825  C    
     11 C           4.513    -3.470    -5.068  C    
     12 C           5.530    -4.217    -5.648  C    
     13 C           6.028    -4.038    -6.937  C    
     14 C           7.024    -4.980    -7.135  C    
     15 C           7.135    -5.732    -5.963  C    
     16 O           6.218    -5.244    -5.088  O    
     17 C           8.011    -6.814    -5.663  C    
     18 C           8.892    -7.356    -6.624  C    
     19 C           9.740    -8.431    -6.303  C    
     20 C           9.761    -9.003    -5.006  C    
     21 C           8.871    -8.461    -4.034  C    
     22 C           8.017    -7.387    -4.370  C    
     23 Cl          8.718    -9.063    -2.452  Cl   
     24 C          10.659   -10.082    -4.749  C    
     25 O          11.025   -10.452    -3.499  O    
     26 S           4.541    -4.768    -2.691  S    
     27 C           3.319    -4.231    -1.647  C    
     28 O           3.201    -4.760    -0.553  O    
     29 O          11.268   -10.756    -5.754  O    
     30 H           1.954    -0.516    -1.754  H    
     31 H           2.770    -1.194    -0.330  H    
     32 H           1.046    -0.798    -0.258  H    
     33 H           1.297    -3.193    -0.446  H    
     34 H          -1.661    -1.916    -4.106  H    
     35 H          -2.236    -0.612    -3.036  H    
     36 H          -2.533    -2.312    -2.594  H    
     37 H           4.126    -2.758    -5.645  H    
     38 H           5.720    -3.340    -7.620  H    
     39 H           7.569    -5.081    -7.993  H    
     40 H           8.922    -6.985    -7.575  H    
     41 H          10.357    -8.783    -7.040  H    
     42 H           7.382    -7.021    -3.655  H    
@<TRIPOS>BOND
     1    1    2 1
     2    2    3 1
     3    2    7 1
     4    3    4 2
     5    3    5 1
     6    5    6 1
     7    7   27 1
     8    7    8 1
     9    8    9 2
    10    8   10 1
    11   10   11 2
    12   10   26 1
    13   11   12 1
    14   12   16 1
    15   12   13 2
    16   13   14 1
    17   14   15 2
    18   15   16 1
    19   15   17 1
    20   17   22 ar
    21   17   18 ar
    22   18   19 ar
    23   19   20 ar
    24   20   21 ar
    25   20   24 1
    26   21   22 ar
    27   21   23 1
    28   24   25 2
    29   24   29 1
    30   26   27 1
    31   27   28 2
    32    1   30 1
    33    1   31 1
    34    1   32 1
    35    2   33 1
    36    6   34 1
    37    6   35 1
    38    6   36 1
    39   11   37 1
    40   13   38 1
    41   14   39 1
    42   18   40 1
    43   19   41 1
    44   22   42 1
@<TRIPOS>MOLECULE
ZINC01144503
 48 51 0 0 0
SMALL
NO_CHARGES


@<TRIPOS>ATOM
      1 C           1.863    -3.273    -2.098  C    
      2 C           0.687    -3.214    -1.320  C    
      3 C           0.567    -4.065    -0.209  C    
      4 C           1.585    -4.947     0.123  C    
      5 C           2.768    -5.005    -0.632  C    
      6 C           2.927    -4.149    -1.755  C    
      7 C           4.063    -4.189    -2.555  C    
      8 C           5.348    -4.119    -2.145  C    
      9 C           6.421    -4.154    -2.965  C    
     10 O           6.339    -4.420    -4.165  O    
     11 N           7.579    -3.918    -2.370  N    
     12 C           7.419    -3.713    -1.063  C    
     13 S           8.635    -3.427     0.095  S    
     14 S           5.808    -3.800    -0.529  S    
     15 C           8.859    -3.916    -3.052  C    
     16 C           9.515    -5.321    -3.048  C    
     17 C          10.906    -5.347    -3.749  C    
     18 C          11.605    -6.633    -3.813  C    
     19 O          11.024    -7.593    -3.314  O    
     20 N          12.819    -6.807    -4.376  N    
     21 C          13.591    -5.731    -4.978  C    
     22 C          13.948    -6.100    -6.440  C    
     23 O          14.599    -7.385    -6.506  O    
     24 C          13.829    -8.444    -5.909  C    
     25 C          13.471    -8.108    -4.441  C    
     26 O           1.277    -5.678     1.210  O    
     27 C          -0.094    -5.298     1.438  C    
     28 O          -0.473    -4.156     0.644  O    
     29 H           1.944    -2.652    -2.908  H    
     30 H          -0.068    -2.566    -1.559  H    
     31 H           3.488    -5.680    -0.373  H    
     32 H           3.892    -4.214    -3.535  H    
     33 H           8.733    -3.583    -4.087  H    
     34 H           9.534    -3.192    -2.588  H    
     35 H           9.637    -5.652    -2.013  H    
     36 H           8.849    -6.021    -3.561  H    
     37 H          10.767    -4.992    -4.773  H    
     38 H          11.553    -4.644    -3.215  H    
     39 H          13.086    -4.768    -4.995  H    
     40 H          14.512    -5.593    -4.407  H    
     41 H          13.042    -6.106    -7.055  H    
     42 H          14.629    -5.352    -6.851  H    
     43 H          12.915    -8.616    -6.489  H    
     44 H          14.425    -9.358    -5.945  H    
     45 H          14.389    -8.075    -3.849  H    
     46 H          12.867    -8.925    -4.041  H    
     47 H          -0.746    -6.142     1.182  H    
     48 H          -0.233    -5.066     2.497  H    
@<TRIPOS>BOND
     1    1    6 ar
     2    1    2 ar
     3    2    3 ar
     4    3   28 1
     5    3    4 ar
     6    4    5 ar
     7    4   26 1
     8    5    6 ar
     9    6    7 1
    10    7    8 2
    11    8   14 1
    12    8    9 1
    13    9   10 2
    14    9   11 1
    15   11   12 1
    16   11   15 1
    17   12   13 2
    18   12   14 1
    19   15   16 1
    20   16   17 1
    21   17   18 1
    22   18   19 2
    23   18   20 1
    24   20   25 1
    25   20   21 1
    26   21   22 1
    27   22   23 1
    28   23   24 1
    29   24   25 1
    30   26   27 1
    31   27   28 1
    32    1   29 1
    33    2   30 1
    34    5   31 1
    35    7   32 1
    36   15   33 1
    37   15   34 1
    38   16   35 1
    39   16   36 1
    40   17   37 1
    41   17   38 1
    42   21   39 1
    43   21   40 1
    44   22   41 1
    45   22   42 1
    46   24   43 1
    47   24   44 1
    48   25   45 1
    49   25   46 1
    50   27   47 1
    51   27   48 1
@<TRIPOS>MOLECULE
ZINC01156997
 60 63 0 0 0
SMALL
NO_CHARGES


@<TRIPOS>ATOM
      1 C          -1.090    -8.065    -1.399  C    
      2 C          -0.371    -8.551    -2.508  C    
      3 C           0.090    -7.660    -3.497  C    
      4 C          -0.160    -6.269    -3.391  C    
      5 C          -0.890    -5.796    -2.272  C    
      6 C          -1.352    -6.686    -1.284  C    
      7 C           0.287    -5.320    -4.449  C    
      8 C           1.404    -4.329    -3.991  C    
      9 C           2.755    -5.046    -3.686  C    
     10 C           3.857    -4.021    -3.312  C    
     11 N           4.007    -2.988    -4.334  N    
     12 C           2.784    -2.255    -4.631  C    
     13 C           1.644    -3.219    -5.056  C    
     14 C           5.194    -2.747    -4.934  C    
     15 O           6.079    -3.592    -4.849  O    
     16 C           5.544    -1.568    -5.743  C    
     17 C           5.333    -1.842    -7.264  C    
     18 C           5.706    -0.604    -8.124  C    
     19 N           7.019    -0.118    -7.780  N    
     20 C           7.289     0.199    -6.400  C    
     21 C           6.993    -1.031    -5.499  C    
     22 S           8.299    -0.171    -8.889  S    
     23 O           7.753    -0.184   -10.383  O    
     24 O           9.102     1.201    -8.804  O    
     25 C           9.333    -1.549    -8.643  C    
     26 C          10.605    -1.405    -8.044  C    
     27 C          11.422    -2.532    -7.834  C    
     28 C          10.970    -3.813    -8.212  C    
     29 C           9.698    -3.960    -8.805  C    
     30 C           8.883    -2.833    -9.017  C    
     31 Cl         11.945    -5.171    -7.956  Cl   
     32 H          -1.427    -8.714    -0.683  H    
     33 H          -0.182    -9.553    -2.591  H    
     34 H           0.609    -8.036    -4.296  H    
     35 H          -1.107    -4.799    -2.180  H    
     36 H          -1.883    -6.333    -0.485  H    
     37 H           0.642    -5.865    -5.327  H    
     38 H          -0.589    -4.752    -4.773  H    
     39 H           1.061    -3.833    -3.077  H    
     40 H           2.622    -5.744    -2.854  H    
     41 H           3.084    -5.617    -4.560  H    
     42 H           3.583    -3.534    -2.370  H    
     43 H           4.776    -4.578    -3.111  H    
     44 H           2.476    -1.700    -3.741  H    
     45 H           2.872    -1.532    -5.438  H    
     46 H           1.908    -3.677    -6.016  H    
     47 H           0.727    -2.641    -5.200  H    
     48 H           4.901    -0.737    -5.452  H    
     49 H           5.956    -2.686    -7.573  H    
     50 H           4.288    -2.108    -7.455  H    
     51 H           5.628    -0.879    -9.177  H    
     52 H           4.978     0.194    -7.943  H    
     53 H           8.327     0.508    -6.244  H    
     54 H           6.653     1.035    -6.096  H    
     55 H           7.114    -0.749    -4.451  H    
     56 H           7.728    -1.809    -5.724  H    
     57 H          10.940    -0.483    -7.755  H    
     58 H          12.341    -2.415    -7.401  H    
     59 H           9.362    -4.885    -9.084  H    
     60 H           7.961    -2.954    -9.444  H    
@<TRIPOS>BOND
     1    1    6 ar
     2    1    2 ar
     3    2    3 ar
     4    3    4 ar
     5    4    5 ar
     6    4    7 1
     7    5    6 ar
     8    7    8 1
     9    8   13 1
    10    8    9 1
    11    9   10 1
    12   10   11 1
    13   11   12 1
    14   11   14 1
    15   12   13 1
    16   14   15 2
    17   14   16 1
    18   16   21 1
    19   16   17 1
    20   17   18 1
    21   18   19 1
    22   19   20 1
    23   19   22 1
    24   20   21 1
    25   22   23 2
    26   22   24 2
    27   22   25 1
    28   25   30 ar
    29   25   26 ar
    30   26   27 ar
    31   27   28 ar
    32   28   29 ar
    33   28   31 1
    34   29   30 ar
    35    1   32 1
    36    2   33 1
    37    3   34 1
    38    5   35 1
    39    6   36 1
    40    7   37 1
    41    7   38 1
    42    8   39 1
    43    9   40 1
    44    9   41 1
    45   10   42 1
    46   10   43 1
    47   12   44 1
    48   12   45 1
    49   13   46 1
    50   13   47 1
    51   16   48 1
    52   17   49 1
    53   17   50 1
    54   18   51 1
    55   18   52 1
    56   20   53 1
    57   20   54 1
    58   21   55 1
    59   21   56 1
    60   26   57 1
    61   27   58 1
    62   29   59 1
    63   30   60 1
@<TRIPOS>MOLECULE
ZINC01163829
 37 38 0 0 0
SMALL
NO_CHARGES


@<TRIPOS>ATOM
      1 C           4.891   -11.244    -9.155  C    
      2 N           5.334   -10.024    -8.538  N    
      3 C           6.679    -9.547    -8.762  C    
      4 C           7.557    -9.783    -7.627  C    
      5 O           8.039    -8.813    -7.060  O    
      6 N           7.735   -11.033    -7.218  N    
      7 C           8.336   -11.553    -6.101  C    
      8 C           8.914   -10.812    -5.039  C    
      9 C           9.438   -11.463    -3.906  C    
     10 C           9.396   -12.865    -3.815  C    
     11 C           8.837   -13.617    -4.863  C    
     12 C           8.310   -12.963    -5.994  C    
     13 S           4.420    -9.332    -7.283  S    
     14 O           4.506    -7.747    -7.407  O    
     15 O           2.869    -9.618    -7.486  O    
     16 C           4.889    -9.881    -5.696  C    
     17 C           4.806   -11.256    -5.380  C    
     18 C           5.242   -11.724    -4.125  C    
     19 C           5.756   -10.819    -3.174  C    
     20 C           5.837    -9.446    -3.483  C    
     21 C           5.409    -8.978    -4.739  C    
     22 Br          6.357   -11.443    -1.529  Br   
     23 H           5.093   -11.212   -10.233  H    
     24 H           3.817   -11.412    -9.025  H    
     25 H           5.429   -12.098    -8.725  H    
     26 H           7.125   -10.027    -9.637  H    
     27 H           6.625    -8.478    -8.992  H    
     28 H           7.325   -11.700    -7.795  H    
     29 H           8.948    -9.793    -5.058  H    
     30 H           9.840   -10.914    -3.141  H    
     31 H           9.771   -13.338    -2.988  H    
     32 H           8.801   -14.636    -4.795  H    
     33 H           7.894   -13.531    -6.735  H    
     34 H           4.443   -11.925    -6.067  H    
     35 H           5.185   -12.721    -3.902  H    
     36 H           6.217    -8.788    -2.796  H    
     37 H           5.485    -7.980    -4.955  H    
@<TRIPOS>BOND
     1    1    2 1
     2    2    3 1
     3    2   13 1
     4    3    4 1
     5    4    5 2
     6    4    6 1
     7    6    7 1
     8    7   12 ar
     9    7    8 ar
    10    8    9 ar
    11    9   10 ar
    12   10   11 ar
    13   11   12 ar
    14   13   14 2
    15   13   15 2
    16   13   16 1
    17   16   21 ar
    18   16   17 ar
    19   17   18 ar
    20   18   19 ar
    21   19   20 ar
    22   19   22 1
    23   20   21 ar
    24    1   23 1
    25    1   24 1
    26    1   25 1
    27    3   26 1
    28    3   27 1
    29    6   28 1
    30    8   29 1
    31    9   30 1
    32   10   31 1
    33   11   32 1
    34   12   33 1
    35   17   34 1
    36   18   35 1
    37   20   36 1
    38   21   37 1
@<TRIPOS>MOLECULE
ZINC01172817
 32 33 0 0 0
SMALL
NO_CHARGES


@<TRIPOS>ATOM
      1 C          -0.035    -6.373    -2.346  C    
      2 C          -0.646    -7.608    -2.639  C    
      3 C          -1.472    -7.740    -3.772  C    
      4 C          -1.688    -6.632    -4.614  C    
      5 C          -1.084    -5.393    -4.314  C    
      6 C          -0.232    -5.265    -3.192  C    
      7 O           0.343    -4.072    -2.834  O    
      8 C           1.333    -3.551    -3.754  C    
      9 C           2.066    -2.435    -3.193  C    
     10 O           1.871    -2.103    -2.026  O    
     11 N           2.877    -1.760    -4.000  N    
     12 C           3.640    -0.651    -3.741  C    
     13 C           4.235    -0.377    -2.485  C    
     14 C           5.024     0.780    -2.259  C    
     15 C           5.215     1.666    -3.348  C    
     16 C           4.656     1.401    -4.609  C    
     17 C           3.883     0.242    -4.809  C    
     18 F           3.383     0.030    -5.998  F    
     19 N           5.584     1.025    -1.037  N    
     20 O           6.272     1.987    -0.821  O    
     21 O           5.411     0.228    -0.015  O    
     22 Br         -2.273    -9.379    -4.153  Br   
     23 H           0.560    -6.283    -1.518  H    
     24 H          -0.497    -8.406    -2.021  H    
     25 H          -2.296    -6.719    -5.433  H    
     26 H          -1.267    -4.590    -4.915  H    
     27 H           2.058    -4.330    -4.025  H    
     28 H           0.827    -3.208    -4.663  H    
     29 H           2.861    -2.045    -4.930  H    
     30 H           4.121    -1.052    -1.728  H    
     31 H           5.778     2.514    -3.236  H    
     32 H           4.815     2.051    -5.380  H    
@<TRIPOS>BOND
     1    1    6 ar
     2    1    2 ar
     3    2    3 ar
     4    3    4 ar
     5    3   22 1
     6    4    5 ar
     7    5    6 ar
     8    6    7 1
     9    7    8 1
    10    8    9 1
    11    9   10 2
    12    9   11 1
    13   11   12 1
    14   12   17 ar
    15   12   13 ar
    16   13   14 ar
    17   14   15 ar
    18   14   19 1
    19   15   16 ar
    20   16   17 ar
    21   17   18 1
    22   19   20 2
    23   19   21 1
    24    1   23 1
    25    2   24 1
    26    4   25 1
    27    5   26 1
    28    8   27 1
    29    8   28 1
    30   11   29 1
    31   13   30 1
    32   15   31 1
    33   16   32 1
@<TRIPOS>MOLECULE
ZINC01182454
 38 39 0 0 0
SMALL
NO_CHARGES


@<TRIPOS>ATOM
      1 C           5.424   -12.480    -3.187  C    
      2 N           4.810   -11.199    -3.054  N    
      3 C           4.268   -10.494    -4.041  C    
      4 O           4.281   -10.915    -5.194  O    
      5 C           3.694    -9.193    -3.725  C    
      6 C           2.979    -8.423    -4.883  C    
      7 C           1.700    -8.981    -5.231  C    
      8 O           1.547   -10.119    -5.656  O    
      9 N           0.743    -8.094    -5.071  N    
     10 C           1.304    -6.959    -4.668  C    
     11 S           0.566    -5.431    -4.883  S    
     12 N           2.589    -7.130    -4.515  N    
     13 N           3.491    -6.255    -4.222  N    
     14 C           3.472    -5.331    -3.263  C    
     15 O           2.529    -5.324    -2.477  O    
     16 C           4.540    -4.440    -3.071  C    
     17 C           5.578    -4.293    -4.033  C    
     18 C           6.641    -3.392    -3.836  C    
     19 C           6.695    -2.604    -2.671  C    
     20 C           5.677    -2.722    -1.707  C    
     21 C           4.616    -3.625    -1.908  C    
     22 Cl          7.973    -1.519    -2.433  Cl   
     23 C          -0.645    -8.362    -5.334  C    
     24 H           4.706   -13.206    -3.575  H    
     25 H           5.767   -12.817    -2.206  H    
     26 H           6.286   -12.423    -3.859  H    
     27 H           4.783   -10.814    -2.163  H    
     28 H           2.987    -9.317    -2.900  H    
     29 H           4.513    -8.573    -3.354  H    
     30 H           3.619    -8.381    -5.770  H    
     31 H           4.348    -6.383    -4.667  H    
     32 H           5.571    -4.831    -4.904  H    
     33 H           7.373    -3.310    -4.546  H    
     34 H           5.704    -2.153    -0.855  H    
     35 H           3.896    -3.681    -1.183  H    
     36 H          -0.783    -8.597    -6.392  H    
     37 H          -1.294    -7.520    -5.083  H    
     38 H          -0.973    -9.218    -4.737  H    
@<TRIPOS>BOND
     1    1    2 1
     2    2    3 1
     3    3    4 2
     4    3    5 1
     5    5    6 1
     6    6   12 1
     7    6    7 1
     8    7    8 2
     9    7    9 1
    10    9   10 1
    11    9   23 1
    12   10   11 2
    13   10   12 1
    14   12   13 1
    15   13   14 1
    16   14   15 2
    17   14   16 1
    18   16   21 ar
    19   16   17 ar
    20   17   18 ar
    21   18   19 ar
    22   19   20 ar
    23   19   22 1
    24   20   21 ar
    25    1   24 1
    26    1   25 1
    27    1   26 1
    28    2   27 1
    29    5   28 1
    30    5   29 1
    31    6   30 1
    32   13   31 1
    33   17   32 1
    34   18   33 1
    35   20   34 1
    36   21   35 1
    37   23   36 1
    38   23   37 1
    39   23   38 1
@<TRIPOS>MOLECULE
ZINC01189363
 41 42 0 0 0
SMALL
NO_CHARGES


@<TRIPOS>ATOM
      1 C           6.904     1.055    -6.038  C    
      2 C           6.582    -0.365    -6.325  C    
      3 C           6.831    -1.061    -7.515  C    
      4 C           6.206    -2.318    -7.413  C    
      5 C           5.607    -2.338    -6.138  C    
      6 N           5.878    -1.174    -5.503  N    
      7 N           5.428    -0.870    -4.301  N    
      8 C           6.173    -0.609    -3.229  C    
      9 O           7.394    -0.639    -3.340  O    
     10 C           5.586    -0.355    -1.979  C    
     11 C           4.281     0.207    -1.905  C    
     12 C           3.678     0.505    -0.667  C    
     13 C           4.369     0.248     0.532  C    
     14 C           5.658    -0.311     0.489  C    
     15 C           6.264    -0.620    -0.749  C    
     16 O           7.492    -1.203    -0.689  O    
     17 Br          1.974     1.254    -0.610  Br   
     18 C           4.848    -3.465    -5.536  C    
     19 C           6.202    -3.373    -8.345  C    
     20 O           5.398    -4.287    -8.220  O    
     21 C           7.148    -3.517    -9.441  C    
     22 C           7.524    -0.539    -8.593  C    
     23 O           6.896    -0.267    -9.610  O    
     24 C           8.954    -0.309    -8.536  C    
     25 H           6.019     1.560    -5.651  H    
     26 H           7.226     1.590    -6.933  H    
     27 H           7.698     1.115    -5.296  H    
     28 H           4.477    -0.996    -4.150  H    
     29 H           3.758     0.430    -2.757  H    
     30 H           3.937     0.465     1.434  H    
     31 H           6.152    -0.504     1.365  H    
     32 H           7.532    -1.819    -1.455  H    
     33 H           3.949    -3.661    -6.125  H    
     34 H           4.536    -3.253    -4.511  H    
     35 H           5.472    -4.360    -5.515  H    
     36 H           6.941    -2.783   -10.217  H    
     37 H           7.089    -4.505    -9.905  H    
     38 H           8.168    -3.387    -9.076  H    
     39 H           9.195     0.411    -7.752  H    
     40 H           9.335     0.079    -9.486  H    
     41 H           9.471    -1.247    -8.318  H    
@<TRIPOS>BOND
     1    1    2 1
     2    2    6 1
     3    2    3 2
     4    3    4 1
     5    3   22 1
     6    4    5 2
     7    4   19 1
     8    5    6 1
     9    5   18 1
    10    6    7 1
    11    7    8 1
    12    8    9 2
    13    8   10 1
    14   10   15 ar
    15   10   11 ar
    16   11   12 ar
    17   12   13 ar
    18   12   17 1
    19   13   14 ar
    20   14   15 ar
    21   15   16 1
    22   19   20 2
    23   19   21 1
    24   22   23 2
    25   22   24 1
    26    1   25 1
    27    1   26 1
    28    1   27 1
    29    7   28 1
    30   11   29 1
    31   13   30 1
    32   14   31 1
    33   16   32 1
    34   18   33 1
    35   18   34 1
    36   18   35 1
    37   21   36 1
    38   21   37 1
    39   21   38 1
    40   24   39 1
    41   24   40 1
    42   24   41 1
@<TRIPOS>MOLECULE
ZINC01196660
 41 43 0 0 0
SMALL
NO_CHARGES


@<TRIPOS>ATOM
      1 C           0.099    -9.555    -2.699  C    
      2 C          -0.358    -8.523    -1.861  C    
      3 C           0.103    -7.206    -2.052  C    
      4 C           1.020    -6.893    -3.084  C    
      5 C           1.482    -7.952    -3.910  C    
      6 C           1.019    -9.268    -3.724  C    
      7 N           1.389    -5.571    -3.175  N    
      8 C           2.102    -4.899    -4.078  C    
      9 O           2.545    -5.463    -5.072  O    
     10 C           2.325    -3.521    -3.939  C    
     11 C           2.230    -2.876    -2.676  C    
     12 C           2.435    -1.492    -2.546  C    
     13 C           2.735    -0.714    -3.676  C    
     14 C           2.840    -1.321    -4.945  C    
     15 C           2.651    -2.714    -5.063  C    
     16 S           3.183    -0.368    -6.365  S    
     17 O           2.367    -0.999    -7.580  O    
     18 O           2.731     1.145    -6.141  O    
     19 N           4.836    -0.434    -6.712  N    
     20 C           5.458     0.069    -7.814  C    
     21 C           4.811     0.799    -8.846  C    
     22 C           5.537     1.279    -9.951  C    
     23 C           6.922     1.045   -10.040  C    
     24 C           7.581     0.327    -9.022  C    
     25 C           6.852    -0.154    -7.919  C    
     26 Br          7.880     1.674   -11.507  Br   
     27 H          -0.238   -10.512    -2.564  H    
     28 H          -1.025    -8.726    -1.113  H    
     29 H          -0.246    -6.469    -1.431  H    
     30 H           2.162    -7.791    -4.652  H    
     31 H           1.354   -10.020    -4.332  H    
     32 H           1.029    -5.021    -2.466  H    
     33 H           2.020    -3.407    -1.827  H    
     34 H           2.361    -1.052    -1.626  H    
     35 H           2.870     0.295    -3.568  H    
     36 H           2.739    -3.140    -5.991  H    
     37 H           5.396    -0.913    -6.079  H    
     38 H           3.808     0.986    -8.807  H    
     39 H           5.058     1.808   -10.686  H    
     40 H           8.587     0.157    -9.083  H    
     41 H           7.344    -0.681    -7.192  H    
@<TRIPOS>BOND
     1    1    6 ar
     2    1    2 ar
     3    2    3 ar
     4    3    4 ar
     5    4    5 ar
     6    4    7 1
     7    5    6 ar
     8    7    8 1
     9    8    9 2
    10    8   10 1
    11   10   15 ar
    12   10   11 ar
    13   11   12 ar
    14   12   13 ar
    15   13   14 ar
    16   14   15 ar
    17   14   16 1
    18   16   17 2
    19   16   18 2
    20   16   19 1
    21   19   20 1
    22   20   25 ar
    23   20   21 ar
    24   21   22 ar
    25   22   23 ar
    26   23   24 ar
    27   23   26 1
    28   24   25 ar
    29    1   27 1
    30    2   28 1
    31    3   29 1
    32    5   30 1
    33    6   31 1
    34    7   32 1
    35   11   33 1
    36   12   34 1
    37   13   35 1
    38   15   36 1
    39   19   37 1
    40   21   38 1
    41   22   39 1
    42   24   40 1
    43   25   41 1
@<TRIPOS>MOLECULE
ZINC01203075
 44 46 0 0 0
SMALL
NO_CHARGES


@<TRIPOS>ATOM
      1 C           1.420    -2.423    -0.615  C    
      2 O           1.211    -2.814    -1.984  O    
      3 C           1.613    -4.098    -2.243  C    
      4 C           0.733    -5.176    -2.013  C    
      5 C           1.130    -6.513    -2.266  C    
      6 C           2.407    -6.734    -2.835  C    
      7 C           3.281    -5.663    -3.089  C    
      8 C           2.886    -4.341    -2.807  C    
      9 O           3.752    -3.308    -3.042  O    
     10 C           3.600    -2.719    -4.346  C    
     11 C           4.559    -1.611    -4.475  C    
     12 O           5.888    -1.837    -4.350  O    
     13 C           0.219    -7.549    -2.053  C    
     14 C           0.447    -8.793    -1.556  C    
     15 C           1.624    -9.165    -0.930  C    
     16 O           2.368    -8.365    -0.379  O    
     17 N           1.948   -10.445    -0.784  N    
     18 C           1.114   -11.418    -1.125  C    
     19 O           1.528   -12.561    -0.966  O    
     20 N          -0.128   -11.120    -1.565  N    
     21 C          -0.485    -9.820    -1.712  C    
     22 O          -1.657    -9.543    -1.982  O    
     23 C          -1.021   -12.141    -1.841  C    
     24 C          -1.464   -12.366    -3.169  C    
     25 C          -2.375   -13.400    -3.457  C    
     26 C          -2.855   -14.223    -2.420  C    
     27 C          -2.424   -14.010    -1.095  C    
     28 C          -1.515   -12.973    -0.806  C    
     29 O           4.138    -0.358    -4.751  O    
     30 H           0.806    -3.028     0.065  H    
     31 H           1.118    -1.376    -0.515  H    
     32 H           2.479    -2.504    -0.327  H    
     33 H          -0.198    -4.977    -1.633  H    
     34 H           2.708    -7.678    -3.087  H    
     35 H           4.204    -5.846    -3.493  H    
     36 H           3.808    -3.449    -5.134  H    
     37 H           2.583    -2.334    -4.481  H    
     38 H          -0.713    -7.332    -2.333  H    
     39 H           2.800   -10.674    -0.375  H    
     40 H          -1.118   -11.778    -3.933  H    
     41 H          -2.688   -13.554    -4.419  H    
     42 H          -3.515   -14.975    -2.629  H    
     43 H          -2.774   -14.607    -0.341  H    
     44 H          -1.215   -12.823     0.162  H    
@<TRIPOS>BOND
     1    1    2 1
     2    2    3 1
     3    3    8 ar
     4    3    4 ar
     5    4    5 ar
     6    5    6 ar
     7    5   13 1
     8    6    7 ar
     9    7    8 ar
    10    8    9 1
    11    9   10 1
    12   10   11 1
    13   11   12 2
    14   11   29 1
    15   13   14 2
    16   14   21 1
    17   14   15 1
    18   15   16 2
    19   15   17 1
    20   17   18 1
    21   18   19 2
    22   18   20 1
    23   20   21 1
    24   20   23 1
    25   21   22 2
    26   23   28 ar
    27   23   24 ar
    28   24   25 ar
    29   25   26 ar
    30   26   27 ar
    31   27   28 ar
    32    1   30 1
    33    1   31 1
    34    1   32 1
    35    4   33 1
    36    6   34 1
    37    7   35 1
    38   10   36 1
    39   10   37 1
    40   13   38 1
    41   17   39 1
    42   24   40 1
    43   25   41 1
    44   26   42 1
    45   27   43 1
    46   28   44 1
@<TRIPOS>MOLECULE
ZINC01205872
 42 45 0 0 0
SMALL
NO_CHARGES


@<TRIPOS>ATOM
      1 C          -0.444    -8.126    -6.045  C    
      2 C           0.186    -6.966    -5.382  C    
      3 C          -0.048    -6.689    -4.007  C    
      4 C           0.561    -5.581    -3.380  C    
      5 C           1.407    -4.755    -4.141  C    
      6 C           1.645    -5.023    -5.485  C    
      7 C           1.044    -6.118    -6.128  C    
      8 O           2.492    -4.086    -5.952  O    
      9 C           2.764    -3.245    -4.915  C    
     10 N           2.105    -3.663    -3.808  N    
     11 C           3.652    -2.138    -5.010  C    
     12 C           4.629    -2.151    -6.038  C    
     13 C           5.583    -1.116    -6.184  C    
     14 C           5.504    -0.012    -5.314  C    
     15 C           4.539     0.035    -4.294  C    
     16 C           3.621    -1.021    -4.129  C    
     17 Cl          2.492    -0.833    -2.874  Cl   
     18 N           6.573    -1.072    -7.115  N    
     19 C           6.985    -1.997    -7.979  C    
     20 S           7.203    -3.614    -7.472  S    
     21 N           7.600    -1.504    -9.058  N    
     22 C           8.003    -2.116   -10.166  C    
     23 O           7.774    -3.304   -10.370  O    
     24 C           8.648    -1.384   -11.145  C    
     25 C           9.146    -1.851   -12.363  C    
     26 C           9.717    -0.769   -13.018  C    
     27 C           9.554     0.333   -12.191  C    
     28 O           8.910    -0.051   -11.064  O    
     29 H          -1.065    -7.788    -6.877  H    
     30 H          -1.074    -8.701    -5.363  H    
     31 H           0.325    -8.795    -6.436  H    
     32 H          -0.660    -7.295    -3.454  H    
     33 H           0.384    -5.379    -2.393  H    
     34 H           1.233    -6.288    -7.120  H    
     35 H           4.634    -2.925    -6.704  H    
     36 H           6.159     0.768    -5.408  H    
     37 H           4.512     0.852    -3.681  H    
     38 H           7.043    -0.224    -7.173  H    
     39 H           7.738    -0.544    -9.051  H    
     40 H           9.103    -2.811   -12.716  H    
     41 H          10.170    -0.781   -13.932  H    
     42 H           9.870     1.281   -12.392  H    
@<TRIPOS>BOND
     1    1    2 1
     2    2    7 ar
     3    2    3 ar
     4    3    4 ar
     5    4    5 ar
     6    5   10 1
     7    5    6 ar
     8    6    7 ar
     9    6    8 1
    10    8    9 1
    11    9   10 2
    12    9   11 1
    13   11   16 ar
    14   11   12 ar
    15   12   13 ar
    16   13   14 ar
    17   13   18 1
    18   14   15 ar
    19   15   16 ar
    20   16   17 1
    21   18   19 1
    22   19   20 2
    23   19   21 1
    24   21   22 1
    25   22   23 2
    26   22   24 1
    27   24   28 1
    28   24   25 2
    29   25   26 1
    30   26   27 2
    31   27   28 1
    32    1   29 1
    33    1   30 1
    34    1   31 1
    35    3   32 1
    36    4   33 1
    37    7   34 1
    38   12   35 1
    39   14   36 1
    40   15   37 1
    41   18   38 1
    42   21   39 1
    43   25   40 1
    44   26   41 1
    45   27   42 1
@<TRIPOS>MOLECULE
ZINC01238245
 54 58 0 0 0
SMALL
NO_CHARGES


@<TRIPOS>ATOM
      1 C           2.652    -5.250    -4.681  C    
      2 C           3.440    -6.360    -5.061  C    
      3 C           4.850    -6.284    -5.031  C    
      4 C           5.431    -5.097    -4.579  C    
      5 C           4.663    -3.982    -4.200  C    
      6 C           3.246    -4.032    -4.249  C    
      7 C           2.468    -2.900    -3.841  C    
      8 C           1.066    -2.784    -3.900  C    
      9 S           0.631    -1.261    -3.235  S    
     10 C           2.250    -0.781    -2.906  C    
     11 N           3.055    -1.788    -3.307  N    
     12 N           2.744     0.350    -2.343  N    
     13 C           2.085     1.368    -1.798  C    
     14 O           0.863     1.337    -1.692  O    
     15 C           2.764     2.458    -1.258  C    
     16 C           4.110     2.778    -1.568  C    
     17 N           4.701     3.852    -0.981  N    
     18 C           4.047     4.645    -0.090  C    
     19 C           2.710     4.350     0.223  C    
     20 N           2.125     3.278    -0.372  N    
     21 C           6.881    -5.186    -4.547  C    
     22 C           7.120    -6.633    -5.026  C    
     23 N           5.831    -7.193    -5.351  N    
     24 C           5.676    -8.396    -5.941  C    
     25 O           4.569    -8.725    -6.350  O    
     26 C           6.757    -9.350    -6.255  C    
     27 C           7.076    -9.346    -7.784  C    
     28 C           8.206   -10.347    -8.143  C    
     29 C           7.877   -11.779    -7.650  C    
     30 C           7.568   -11.804    -6.131  C    
     31 C           6.447   -10.799    -5.753  C    
     32 H           1.637    -5.354    -4.713  H    
     33 H           2.962    -7.219    -5.340  H    
     34 H           5.150    -3.139    -3.883  H    
     35 H           0.396    -3.470    -4.262  H    
     36 H           3.713     0.409    -2.310  H    
     37 H           4.654     2.228    -2.238  H    
     38 H           4.526     5.440     0.339  H    
     39 H           2.185     4.922     0.893  H    
     40 H           7.322    -4.456    -5.230  H    
     41 H           7.258    -5.029    -3.535  H    
     42 H           7.771    -6.619    -5.905  H    
     43 H           7.599    -7.216    -4.234  H    
     44 H           7.675    -9.052    -5.742  H    
     45 H           6.180    -9.606    -8.357  H    
     46 H           7.387    -8.343    -8.090  H    
     47 H           8.346   -10.359    -9.227  H    
     48 H           9.144   -10.013    -7.688  H    
     49 H           7.011   -12.158    -8.200  H    
     50 H           8.724   -12.437    -7.859  H    
     51 H           7.260   -12.813    -5.843  H    
     52 H           8.478   -11.562    -5.573  H    
     53 H           6.335   -10.790    -4.664  H    
     54 H           5.505   -11.156    -6.181  H    
@<TRIPOS>BOND
     1    1    6 ar
     2    1    2 ar
     3    2    3 ar
     4    3   23 1
     5    3    4 ar
     6    4    5 ar
     7    4   21 1
     8    5    6 ar
     9    6    7 1
    10    7   11 1
    11    7    8 2
    12    8    9 1
    13    9   10 1
    14   10   11 2
    15   10   12 1
    16   12   13 1
    17   13   14 2
    18   13   15 1
    19   15   20 ar
    20   15   16 ar
    21   16   17 ar
    22   17   18 ar
    23   18   19 ar
    24   19   20 ar
    25   21   22 1
    26   22   23 1
    27   23   24 1
    28   24   25 2
    29   24   26 1
    30   26   31 1
    31   26   27 1
    32   27   28 1
    33   28   29 1
    34   29   30 1
    35   30   31 1
    36    1   32 1
    37    2   33 1
    38    5   34 1
    39    8   35 1
    40   12   36 1
    41   16   37 1
    42   18   38 1
    43   19   39 1
    44   21   40 1
    45   21   41 1
    46   22   42 1
    47   22   43 1
    48   26   44 1
    49   27   45 1
    50   27   46 1
    51   28   47 1
    52   28   48 1
    53   29   49 1
    54   29   50 1
    55   30   51 1
    56   30   52 1
    57   31   53 1
    58   31   54 1
@<TRIPOS>MOLECULE
ZINC01239039
 36 37 0 0 0
SMALL
NO_CHARGES


@<TRIPOS>ATOM
      1 C          -3.114    -8.063    -2.417  C    
      2 C          -2.166    -7.046    -1.729  C    
      3 C          -1.355    -7.731    -0.595  C    
      4 C          -1.237    -6.353    -2.762  C    
      5 O          -0.528    -5.270    -2.152  O    
      6 C           0.379    -4.458    -2.756  C    
      7 O           0.689    -4.632    -4.064  O    
      8 C           1.005    -3.379    -1.966  C    
      9 N           2.171    -2.798    -2.605  N    
     10 C           2.204    -1.614    -3.203  C    
     11 O           1.219    -0.888    -3.278  O    
     12 C           3.403    -1.286    -3.741  C    
     13 C           3.650    -0.159    -4.446  C    
     14 C           4.861     0.241    -4.998  C    
     15 C           5.058     1.404    -5.747  C    
     16 C           6.397     1.448    -6.108  C    
     17 C           6.996     0.316    -5.569  C    
     18 O           6.060    -0.399    -4.903  O    
     19 S           4.566    -2.505    -3.450  S    
     20 C           3.357    -3.400    -2.671  C    
     21 S           3.766    -4.940    -2.064  S    
     22 H          -2.540    -8.867    -2.896  H    
     23 H          -3.716    -7.568    -3.179  H    
     24 H          -3.791    -8.511    -1.685  H    
     25 H          -2.794    -6.277    -1.269  H    
     26 H          -2.030    -8.159     0.152  H    
     27 H          -0.711    -7.008    -0.095  H    
     28 H          -0.730    -8.534    -0.999  H    
     29 H          -0.528    -7.072    -3.172  H    
     30 H          -1.839    -5.950    -3.586  H    
     31 H           0.235    -2.627    -1.771  H    
     32 H           1.296    -3.781    -0.990  H    
     33 H           2.889     0.466    -4.592  H    
     34 H           4.346     2.100    -5.989  H    
     35 H           6.854     2.175    -6.662  H    
     36 H           7.982     0.056    -5.658  H    
@<TRIPOS>BOND
     1    1    2 1
     2    2    3 1
     3    2    4 1
     4    4    5 1
     5    5    6 1
     6    6    7 2
     7    6    8 1
     8    8    9 1
     9    9   20 1
    10    9   10 1
    11   10   11 2
    12   10   12 1
    13   12   13 2
    14   12   19 1
    15   13   14 1
    16   14   18 1
    17   14   15 2
    18   15   16 1
    19   16   17 2
    20   17   18 1
    21   19   20 1
    22   20   21 2
    23    1   22 1
    24    1   23 1
    25    1   24 1
    26    2   25 1
    27    3   26 1
    28    3   27 1
    29    3   28 1
    30    4   29 1
    31    4   30 1
    32    8   31 1
    33    8   32 1
    34   13   33 1
    35   15   34 1
    36   16   35 1
    37   17   36 1
@<TRIPOS>MOLECULE
ZINC01324575
 61 65 0 0 0
SMALL
NO_CHARGES


@<TRIPOS>ATOM
      1 C           0.052     4.509   -10.408  C    
      2 C           0.909     3.304   -10.378  C    
      3 C           2.029     3.210    -9.523  C    
      4 C           2.826     2.049    -9.510  C    
      5 C           2.529     0.954   -10.354  C    
      6 C           1.408     1.055   -11.207  C    
      7 C           0.610     2.214   -11.221  C    
      8 C           3.364    -0.278   -10.355  C    
      9 N           2.694    -1.361    -9.762  N    
     10 C           2.944    -1.922    -8.633  C    
     11 C           2.074    -2.925    -8.528  C    
     12 C           2.098    -3.733    -7.429  C    
     13 N           3.004    -3.501    -6.474  N    
     14 C           3.911    -2.474    -6.562  C    
     15 N           3.855    -1.680    -7.675  N    
     16 C           4.889    -2.254    -5.462  C    
     17 C           5.994    -1.202    -5.797  C    
     18 C           6.935    -0.959    -4.591  C    
     19 N           6.170    -0.669    -3.406  N    
     20 C           5.158    -1.608    -2.989  C    
     21 C           4.155    -1.859    -4.144  C    
     22 S           6.310     0.828    -2.621  S    
     23 O           6.219     0.584    -1.053  O    
     24 O           7.773     1.421    -2.822  O    
     25 C           5.174     1.997    -3.153  C    
     26 C           5.170     3.306    -2.836  C    
     27 C           5.956     3.906    -1.873  C    
     28 C           5.808     3.582    -0.505  C    
     29 C           6.633     4.182     0.466  C    
     30 C           7.613     5.118     0.080  C    
     31 C           7.734     5.482    -1.273  C    
     32 C           6.901     4.896    -2.247  C    
     33 O           1.297    -4.647    -7.297  O    
     34 N           1.363    -2.912    -9.589  N    
     35 N           1.753    -1.984   -10.292  N    
     36 H           0.046     4.932   -11.417  H    
     37 H           0.402     5.281    -9.717  H    
     38 H          -0.970     4.236   -10.130  H    
     39 H           2.273     3.986    -8.902  H    
     40 H           3.629     2.009    -8.877  H    
     41 H           1.167     0.285   -11.835  H    
     42 H          -0.193     2.257   -11.855  H    
     43 H           3.634    -0.527   -11.389  H    
     44 H           4.305    -0.087    -9.829  H    
     45 H           3.013    -4.078    -5.690  H    
     46 H           5.400    -3.209    -5.287  H    
     47 H           6.592    -1.547    -6.643  H    
     48 H           5.535    -0.247    -6.071  H    
     49 H           7.536    -1.854    -4.404  H    
     50 H           7.625    -0.151    -4.851  H    
     51 H           5.644    -2.550    -2.712  H    
     52 H           4.596    -1.263    -2.116  H    
     53 H           3.572    -0.947    -4.305  H    
     54 H           3.468    -2.655    -3.846  H    
     55 H           4.542     1.695    -3.857  H    
     56 H           4.592     3.916    -3.376  H    
     57 H           5.095     2.908    -0.204  H    
     58 H           6.523     3.934     1.454  H    
     59 H           8.218     5.546     0.786  H    
     60 H           8.438     6.173    -1.554  H    
     61 H           7.010     5.169    -3.230  H    
@<TRIPOS>BOND
     1    1    2 1
     2    2    7 ar
     3    2    3 ar
     4    3    4 ar
     5    4    5 ar
     6    5    6 ar
     7    5    8 1
     8    6    7 ar
     9    8    9 1
    10    9   35 1
    11    9   10 1
    12   10   11 2
    13   10   15 1
    14   11   34 1
    15   11   12 1
    16   12   13 1
    17   12   33 2
    18   13   14 1
    19   14   16 1
    20   14   15 2
    21   16   21 1
    22   16   17 1
    23   17   18 1
    24   18   19 1
    25   19   20 1
    26   19   22 1
    27   20   21 1
    28   22   23 2
    29   22   24 2
    30   22   25 1
    31   25   26 2
    32   26   27 1
    33   27   32 ar
    34   27   28 ar
    35   28   29 ar
    36   29   30 ar
    37   30   31 ar
    38   31   32 ar
    39   34   35 2
    40    1   36 1
    41    1   37 1
    42    1   38 1
    43    3   39 1
    44    4   40 1
    45    6   41 1
    46    7   42 1
    47    8   43 1
    48    8   44 1
    49   13   45 1
    50   16   46 1
    51   17   47 1
    52   17   48 1
    53   18   49 1
    54   18   50 1
    55   20   51 1
    56   20   52 1
    57   21   53 1
    58   21   54 1
    59   25   55 1
    60   26   56 1
    61   28   57 1
    62   29   58 1
    63   30   59 1
    64   31   60 1
    65   32   61 1
@<TRIPOS>MOLECULE
ZINC01330492
 56 59 0 0 0
SMALL
NO_CHARGES


@<TRIPOS>ATOM
      1 C           1.402    -2.276    -7.492  C    
      2 C           2.591    -3.214    -7.157  C    
      3 C           3.946    -2.450    -7.164  C    
      4 C           5.124    -3.385    -6.786  C    
      5 C           3.602    -4.834    -5.441  C    
      6 C           2.393    -3.928    -5.789  C    
      7 C           6.125    -4.696    -4.867  C    
      8 C           6.946    -5.732    -5.590  C    
      9 C           8.277    -5.971    -5.153  C    
     10 C           9.100    -6.926    -5.777  C    
     11 C           8.607    -7.677    -6.857  C    
     12 C           7.292    -7.467    -7.306  C    
     13 C           6.473    -6.509    -6.676  C    
     14 F           9.369    -8.562    -7.443  F    
     15 C           5.885    -5.098    -3.451  C    
     16 N           5.976    -4.248    -2.424  N    
     17 N           5.689    -4.895    -1.383  N    
     18 N           5.419    -6.059    -1.653  N    
     19 N           5.505    -6.268    -2.897  N    
     20 C           5.256    -7.531    -3.540  C    
     21 C           4.483    -8.514    -2.730  C    
     22 C           3.171    -8.206    -2.306  C    
     23 C           2.438    -9.111    -1.518  C    
     24 C           2.992   -10.362    -1.166  C    
     25 C           4.293   -10.683    -1.601  C    
     26 C           5.035    -9.768    -2.372  C    
     27 O           2.330   -11.248    -0.362  O    
     28 C           1.207   -11.897    -0.981  C    
     29 N           4.889    -4.058    -5.463  N    
     30 H           0.471    -2.847    -7.534  H    
     31 H           1.554    -1.802    -8.461  H    
     32 H           1.305    -1.496    -6.732  H    
     33 H           2.630    -3.980    -7.940  H    
     34 H           4.130    -2.030    -8.159  H    
     35 H           3.905    -1.624    -6.447  H    
     36 H           5.262    -4.117    -7.584  H    
     37 H           6.027    -2.768    -6.743  H    
     38 H           3.413    -5.232    -4.443  H    
     39 H           3.622    -5.673    -6.134  H    
     40 H           2.266    -3.180    -4.995  H    
     41 H           1.486    -4.542    -5.823  H    
     42 H           6.809    -3.842    -4.782  H    
     43 H           8.664    -5.445    -4.367  H    
     44 H          10.052    -7.074    -5.437  H    
     45 H           6.923    -8.011    -8.089  H    
     46 H           5.529    -6.397    -7.027  H    
     47 H           4.691    -7.372    -4.461  H    
     48 H           6.223    -7.951    -3.827  H    
     49 H           2.746    -7.308    -2.553  H    
     50 H           1.501    -8.855    -1.201  H    
     51 H           4.713   -11.580    -1.338  H    
     52 H           5.984   -10.021    -2.661  H    
     53 H           0.378   -11.192    -1.103  H    
     54 H           0.870   -12.699    -0.324  H    
     55 H           1.466   -12.330    -1.956  H    
     56 H           4.704    -3.281    -4.826  H    
@<TRIPOS>BOND
     1    1    2 1
     2    2    6 1
     3    2    3 1
     4    3    4 1
     5    4   29 1
     6    5    6 1
     7    5   29 1
     8    7    8 1
     9    7   15 1
    10    7   29 1
    11    8   13 ar
    12    8    9 ar
    13    9   10 ar
    14   10   11 ar
    15   11   12 ar
    16   11   14 1
    17   12   13 ar
    18   15   19 1
    19   15   16 2
    20   16   17 1
    21   17   18 2
    22   18   19 1
    23   19   20 1
    24   20   21 1
    25   21   26 ar
    26   21   22 ar
    27   22   23 ar
    28   23   24 ar
    29   24   25 ar
    30   24   27 1
    31   25   26 ar
    32   27   28 1
    33    1   30 1
    34    1   31 1
    35    1   32 1
    36    2   33 1
    37    3   34 1
    38    3   35 1
    39    4   36 1
    40    4   37 1
    41    5   38 1
    42    5   39 1
    43    6   40 1
    44    6   41 1
    45    7   42 1
    46    9   43 1
    47   10   44 1
    48   12   45 1
    49   13   46 1
    50   20   47 1
    51   20   48 1
    52   22   49 1
    53   23   50 1
    54   25   51 1
    55   26   52 1
    56   28   53 1
    57   28   54 1
    58   28   55 1
    59   29   56 1
@<TRIPOS>MOLECULE
ZINC01339388
 46 48 0 0 0
SMALL
NO_CHARGES


@<TRIPOS>ATOM
      1 C           4.224     1.223     1.010  C    
      2 C           3.753    -0.219     0.661  C    
      3 C           2.961    -0.872     1.825  C    
      4 C           1.617    -0.933     1.272  C    
      5 C           0.461    -1.334     1.971  C    
      6 C          -0.778    -1.316     1.306  C    
      7 C          -0.846    -0.898    -0.036  C    
      8 C           0.324    -0.509    -0.721  C    
      9 C           1.585    -0.540    -0.073  C    
     10 N           2.863    -0.239    -0.491  N    
     11 C           3.334    -0.067    -1.746  C    
     12 O           4.537     0.118    -1.908  O    
     13 C           2.537    -0.110    -2.969  C    
     14 C           2.536    -0.043    -5.471  C    
     15 C           3.476     0.046    -6.613  C    
     16 C           4.046    -1.127    -7.156  C    
     17 C           4.994    -1.048    -8.193  C    
     18 C           5.389     0.207    -8.691  C    
     19 C           4.829     1.394    -8.167  C    
     20 C           3.877     1.301    -7.130  C    
     21 O           5.236     2.650    -8.541  O    
     22 C           5.129     2.971    -9.947  C    
     23 N           3.326    -0.038    -4.224  N    
     24 H           4.818     1.638     0.197  H    
     25 H           4.844     1.207     1.907  H    
     26 H           3.365     1.871     1.183  H    
     27 H           4.640    -0.838     0.470  H    
     28 H           3.318    -1.882     2.043  H    
     29 H           2.975    -0.272     2.737  H    
     30 H           0.518    -1.622     2.948  H    
     31 H          -1.627    -1.594     1.797  H    
     32 H          -1.747    -0.870    -0.514  H    
     33 H           0.220    -0.182    -1.675  H    
     34 H           1.977    -1.048    -2.981  H    
     35 H           1.851     0.740    -2.950  H    
     36 H           1.840     0.798    -5.483  H    
     37 H           1.944    -0.959    -5.531  H    
     38 H           3.795    -2.049    -6.786  H    
     39 H           5.410    -1.903    -8.571  H    
     40 H           6.111     0.245    -9.414  H    
     41 H           3.503     2.161    -6.727  H    
     42 H           5.896     2.440   -10.521  H    
     43 H           5.296     4.038   -10.063  H    
     44 H           4.136     2.730   -10.344  H    
     45 H           3.886     0.817    -4.201  H    
     46 H           3.958    -0.841    -4.242  H    
@<TRIPOS>BOND
     1    1    2 1
     2    2   10 1
     3    2    3 1
     4    3    4 1
     5    4    9 ar
     6    4    5 ar
     7    5    6 ar
     8    6    7 ar
     9    7    8 ar
    10    8    9 ar
    11    9   10 1
    12   10   11 1
    13   11   12 2
    14   11   13 1
    15   13   23 1
    16   14   15 1
    17   14   23 1
    18   15   20 ar
    19   15   16 ar
    20   16   17 ar
    21   17   18 ar
    22   18   19 ar
    23   19   20 ar
    24   19   21 1
    25   21   22 1
    26    1   24 1
    27    1   25 1
    28    1   26 1
    29    2   27 1
    30    3   28 1
    31    3   29 1
    32    5   30 1
    33    6   31 1
    34    7   32 1
    35    8   33 1
    36   13   34 1
    37   13   35 1
    38   14   36 1
    39   14   37 1
    40   16   38 1
    41   17   39 1
    42   18   40 1
    43   20   41 1
    44   22   42 1
    45   22   43 1
    46   22   44 1
    47   23   45 1
    48   23   46 1
@<TRIPOS>MOLECULE
ZINC01343241
 69 73 0 0 0
SMALL
NO_CHARGES


@<TRIPOS>ATOM
      1 C           0.799     5.853    -5.488  C    
      2 N           0.968     4.525    -6.045  N    
      3 C          -0.013     4.189    -7.061  C    
      4 C           1.991     3.670    -5.673  C    
      5 C           2.432     2.607    -6.512  C    
      6 C           3.474     1.738    -6.142  C    
      7 C           4.150     1.890    -4.909  C    
      8 C           3.730     2.941    -4.064  C    
      9 C           2.674     3.796    -4.432  C    
     10 C           5.249     0.961    -4.480  C    
     11 C           4.850    -0.464    -4.680  C    
     12 N           5.453    -1.348    -5.480  N    
     13 N           4.817    -2.430    -5.392  N    
     14 N           3.875    -2.319    -4.618  N    
     15 N           3.825    -1.150    -4.134  N    
     16 C           2.835    -0.728    -3.176  C    
     17 C           2.910    -1.581    -1.875  C    
     18 C           1.845    -1.144    -0.838  C    
     19 C           0.417    -1.157    -1.443  C    
     20 C           0.327    -0.330    -2.752  C    
     21 C           1.400    -0.765    -3.784  C    
     22 C           6.778     1.405    -6.502  C    
     23 C           8.152     1.989    -6.925  C    
     24 N           9.218     1.308    -6.213  N    
     25 C           9.095     1.364    -4.771  C    
     26 C           7.754     0.739    -4.318  C    
     27 C          10.264     0.684    -6.859  C    
     28 C          10.801     1.247    -8.049  C    
     29 C          11.878     0.652    -8.730  C    
     30 C          12.445    -0.535    -8.246  C    
     31 C          11.935    -1.124    -7.079  C    
     32 C          10.860    -0.524    -6.390  C    
     33 F          10.379    -1.197    -5.378  F    
     34 N           6.597     1.402    -5.010  N    
     35 H           0.624     6.578    -6.288  H    
     36 H           1.662     6.227    -4.947  H    
     37 H          -0.065     5.858    -4.818  H    
     38 H          -1.007     4.542    -6.772  H    
     39 H          -0.128     3.118    -7.223  H    
     40 H           0.263     4.661    -8.009  H    
     41 H           2.041     2.473    -7.443  H    
     42 H           3.744     0.991    -6.791  H    
     43 H           4.172     3.082    -3.150  H    
     44 H           2.388     4.490    -3.742  H    
     45 H           5.333     1.052    -3.392  H    
     46 H           3.028     0.308    -2.885  H    
     47 H           2.756    -2.636    -2.114  H    
     48 H           3.904    -1.480    -1.434  H    
     49 H           1.882    -1.817     0.022  H    
     50 H           2.080    -0.137    -0.478  H    
     51 H           0.124    -2.189    -1.648  H    
     52 H          -0.287    -0.754    -0.711  H    
     53 H          -0.668    -0.455    -3.189  H    
     54 H           0.456     0.730    -2.521  H    
     55 H           1.351    -0.100    -4.650  H    
     56 H           1.168    -1.778    -4.127  H    
     57 H           6.013     2.019    -6.976  H    
     58 H           6.695     0.396    -6.907  H    
     59 H           8.218     1.883    -8.010  H    
     60 H           8.180     3.059    -6.694  H    
     61 H           9.923     0.898    -4.236  H    
     62 H           9.103     2.415    -4.464  H    
     63 H           7.770    -0.335    -4.522  H    
     64 H           7.671     0.875    -3.236  H    
     65 H          10.451     2.135    -8.408  H    
     66 H          12.251     1.085    -9.576  H    
     67 H          13.223    -0.973    -8.744  H    
     68 H          12.334    -2.004    -6.749  H    
     69 H           6.668     2.385    -4.742  H    
@<TRIPOS>BOND
     1    1    2 1
     2    2    3 1
     3    2    4 1
     4    4    9 ar
     5    4    5 ar
     6    5    6 ar
     7    6    7 ar
     8    7    8 ar
     9    7   10 1
    10    8    9 ar
    11   10   11 1
    12   10   34 1
    13   11   15 1
    14   11   12 2
    15   12   13 1
    16   13   14 2
    17   14   15 1
    18   15   16 1
    19   16   21 1
    20   16   17 1
    21   17   18 1
    22   18   19 1
    23   19   20 1
    24   20   21 1
    25   22   23 1
    26   22   34 1
    27   23   24 1
    28   24   25 1
    29   24   27 1
    30   25   26 1
    31   26   34 1
    32   27   32 ar
    33   27   28 ar
    34   28   29 ar
    35   29   30 ar
    36   30   31 ar
    37   31   32 ar
    38   32   33 1
    39    1   35 1
    40    1   36 1
    41    1   37 1
    42    3   38 1
    43    3   39 1
    44    3   40 1
    45    5   41 1
    46    6   42 1
    47    8   43 1
    48    9   44 1
    49   10   45 1
    50   16   46 1
    51   17   47 1
    52   17   48 1
    53   18   49 1
    54   18   50 1
    55   19   51 1
    56   19   52 1
    57   20   53 1
    58   20   54 1
    59   21   55 1
    60   21   56 1
    61   22   57 1
    62   22   58 1
    63   23   59 1
    64   23   60 1
    65   25   61 1
    66   25   62 1
    67   26   63 1
    68   26   64 1
    69   28   65 1
    70   29   66 1
    71   30   67 1
    72   31   68 1
    73   34   69 1
@<TRIPOS>MOLECULE
ZINC01347369
 40 42 0 0 0
SMALL
NO_CHARGES


@<TRIPOS>ATOM
      1 C           0.585   -11.131    -2.800  C    
      2 C           1.669   -10.123    -3.302  C    
      3 C           2.149    -9.308    -2.057  C    
      4 C           2.815   -10.966    -3.951  C    
      5 O           3.924   -10.215    -4.437  O    
      6 N           0.980    -9.312    -4.277  N    
      7 C           1.304    -8.200    -4.985  C    
      8 C           2.472    -7.399    -4.960  C    
      9 C           2.552    -6.292    -5.795  C    
     10 N           1.543    -5.960    -6.635  N    
     11 C           0.420    -6.720    -6.663  C    
     12 N           0.323    -7.804    -5.847  N    
     13 N           3.748    -5.735    -5.557  N    
     14 N           4.340    -6.436    -4.677  N    
     15 N           3.636    -7.412    -4.297  N    
     16 C           4.328    -4.594    -6.198  C    
     17 C           4.683    -3.520    -5.220  C    
     18 C           6.044    -3.229    -4.925  C    
     19 C           6.384    -2.226    -3.996  C    
     20 C           5.379    -1.495    -3.347  C    
     21 C           4.029    -1.759    -3.631  C    
     22 C           3.675    -2.761    -4.559  C    
     23 Cl          2.015    -2.985    -4.842  Cl   
     24 F           7.032    -3.882    -5.490  F    
     25 H           1.004   -11.819    -2.059  H    
     26 H           0.192   -11.726    -3.625  H    
     27 H          -0.251   -10.603    -2.336  H    
     28 H           1.349    -8.654    -1.702  H    
     29 H           3.016    -8.693    -2.280  H    
     30 H           2.428    -9.977    -1.240  H    
     31 H           3.216   -11.672    -3.215  H    
     32 H           2.423   -11.545    -4.794  H    
     33 H           3.584    -9.713    -5.213  H    
     34 H           0.084    -9.624    -4.467  H    
     35 H          -0.345    -6.479    -7.293  H    
     36 H           5.208    -4.948    -6.745  H    
     37 H           3.653    -4.172    -6.949  H    
     38 H           7.365    -2.028    -3.792  H    
     39 H           5.630    -0.766    -2.679  H    
     40 H           3.302    -1.212    -3.156  H    
@<TRIPOS>BOND
     1    1    2 1
     2    2    3 1
     3    2    4 1
     4    2    6 1
     5    4    5 1
     6    6    7 1
     7    7   12 ar
     8    7    8 ar
     9    8   15 1
    10    8    9 ar
    11    9   10 ar
    12    9   13 1
    13   10   11 ar
    14   11   12 ar
    15   13   14 1
    16   13   16 1
    17   14   15 2
    18   16   17 1
    19   17   22 ar
    20   17   18 ar
    21   18   19 ar
    22   18   24 1
    23   19   20 ar
    24   20   21 ar
    25   21   22 ar
    26   22   23 1
    27    1   25 1
    28    1   26 1
    29    1   27 1
    30    3   28 1
    31    3   29 1
    32    3   30 1
    33    4   31 1
    34    4   32 1
    35    5   33 1
    36    6   34 1
    37   11   35 1
    38   16   36 1
    39   16   37 1
    40   19   38 1
    41   20   39 1
    42   21   40 1
@<TRIPOS>MOLECULE
ZINC01348839
 56 59 0 0 0
SMALL
NO_CHARGES


@<TRIPOS>ATOM
      1 C           3.508    -1.361    -8.367  C    
      2 C           4.999    -2.199    -6.575  C    
      3 C           5.443    -3.459    -5.790  C    
      4 C           3.196    -4.435    -6.074  C    
      5 C           2.749    -3.182    -6.867  C    
      6 C           4.655    -5.175    -4.103  C    
      7 C           5.059    -6.486    -4.737  C    
      8 C           6.425    -6.642    -5.093  C    
      9 C           6.901    -7.811    -5.713  C    
     10 C           6.017    -8.860    -5.995  C    
     11 C           4.658    -8.737    -5.661  C    
     12 C           4.174    -7.565    -5.041  C    
     13 Cl          2.510    -7.570    -4.701  Cl   
     14 C           3.684    -5.278    -2.976  C    
     15 N           2.464    -4.726    -2.951  N    
     16 N           1.967    -4.970    -1.823  N    
     17 N           2.752    -5.600    -1.130  N    
     18 N           3.829    -5.827    -1.757  N    
     19 C           4.963    -6.473    -1.161  C    
     20 C           5.193    -7.852    -1.665  C    
     21 C           4.160    -8.813    -1.589  C    
     22 C           4.366   -10.133    -2.032  C    
     23 C           5.617   -10.530    -2.567  C    
     24 C           6.654    -9.578    -2.624  C    
     25 C           6.447    -8.254    -2.176  C    
     26 O           5.944   -11.799    -2.983  O    
     27 C           4.931   -12.650    -3.554  C    
     28 N           3.912    -2.532    -7.541  N    
     29 N           4.275    -4.091    -5.090  N    
     30 H           3.098    -0.558    -7.747  H    
     31 H           2.755    -1.655    -9.100  H    
     32 H           4.367    -0.973    -8.918  H    
     33 H           4.665    -1.436    -5.864  H    
     34 H           5.868    -1.810    -7.110  H    
     35 H           5.902    -4.170    -6.486  H    
     36 H           6.202    -3.151    -5.066  H    
     37 H           2.317    -4.827    -5.558  H    
     38 H           3.546    -5.198    -6.777  H    
     39 H           2.015    -3.497    -7.615  H    
     40 H           2.259    -2.481    -6.185  H    
     41 H           5.531    -4.792    -3.571  H    
     42 H           7.102    -5.902    -4.903  H    
     43 H           7.890    -7.896    -5.950  H    
     44 H           6.359    -9.715    -6.435  H    
     45 H           4.029    -9.513    -5.874  H    
     46 H           5.843    -5.841    -1.313  H    
     47 H           4.816    -6.545    -0.078  H    
     48 H           3.248    -8.561    -1.200  H    
     49 H           3.600   -10.798    -1.944  H    
     50 H           7.572    -9.841    -2.983  H    
     51 H           7.224    -7.592    -2.225  H    
     52 H           4.243   -12.999    -2.780  H    
     53 H           5.423   -13.522    -3.990  H    
     54 H           4.375   -12.129    -4.343  H    
     55 H           4.298    -3.225    -8.187  H    
     56 H           3.883    -3.341    -4.512  H    
@<TRIPOS>BOND
     1    1   28 1
     2    2    3 1
     3    2   28 1
     4    3   29 1
     5    4    5 1
     6    4   29 1
     7    5   28 1
     8    6    7 1
     9    6   14 1
    10    6   29 1
    11    7   12 ar
    12    7    8 ar
    13    8    9 ar
    14    9   10 ar
    15   10   11 ar
    16   11   12 ar
    17   12   13 1
    18   14   18 1
    19   14   15 2
    20   15   16 1
    21   16   17 2
    22   17   18 1
    23   18   19 1
    24   19   20 1
    25   20   25 ar
    26   20   21 ar
    27   21   22 ar
    28   22   23 ar
    29   23   24 ar
    30   23   26 1
    31   24   25 ar
    32   26   27 1
    33    1   30 1
    34    1   31 1
    35    1   32 1
    36    2   33 1
    37    2   34 1
    38    3   35 1
    39    3   36 1
    40    4   37 1
    41    4   38 1
    42    5   39 1
    43    5   40 1
    44    6   41 1
    45    8   42 1
    46    9   43 1
    47   10   44 1
    48   11   45 1
    49   19   46 1
    50   19   47 1
    51   21   48 1
    52   22   49 1
    53   24   50 1
    54   25   51 1
    55   27   52 1
    56   27   53 1
    57   27   54 1
    58   28   55 1
    59   29   56 1
@<TRIPOS>MOLECULE
ZINC01349269
 55 59 0 0 0
SMALL
NO_CHARGES


@<TRIPOS>ATOM
      1 C           6.882   -12.578   -12.916  C    
      2 C           5.677   -11.927   -12.610  C    
      3 C           5.681   -10.798   -11.772  C    
      4 C           6.883   -10.292   -11.202  C    
      5 C           8.085   -10.978   -11.534  C    
      6 C           8.088   -12.100   -12.382  C    
      7 N           6.891    -9.182   -10.382  N    
      8 C           5.946    -8.086   -10.523  C    
      9 C           5.171    -7.858    -9.200  C    
     10 C           7.091    -8.778    -7.961  C    
     11 C           7.845    -9.008    -9.299  C    
     12 C           5.448    -7.199    -6.782  C    
     13 C           4.710    -8.302    -6.074  C    
     14 C           3.313    -8.461    -6.252  C    
     15 C           2.605    -9.481    -5.586  C    
     16 C           3.285   -10.362    -4.725  C    
     17 C           4.669   -10.219    -4.528  C    
     18 C           5.373    -9.197    -5.194  C    
     19 F           2.633   -11.310    -4.111  F    
     20 C           6.339    -6.438    -5.859  C    
     21 N           7.655    -6.250    -6.009  N    
     22 N           8.039    -5.548    -5.037  N    
     23 N           7.098    -5.266    -4.297  N    
     24 N           6.024    -5.767    -4.730  N    
     25 C           4.744    -5.572    -4.103  C    
     26 C           3.848    -4.767    -4.957  C    
     27 C           4.080    -3.460    -5.383  C    
     28 C           3.023    -3.110    -6.211  C    
     29 C           2.173    -4.208    -6.261  C    
     30 O           2.685    -5.210    -5.501  O    
     31 N           6.124    -7.634    -8.063  N    
     32 H           6.882   -13.395   -13.529  H    
     33 H           4.795   -12.279   -12.991  H    
     34 H           4.774   -10.389   -11.534  H    
     35 H           8.991   -10.636   -11.207  H    
     36 H           8.972   -12.559   -12.617  H    
     37 H           6.508    -7.176   -10.757  H    
     38 H           5.231    -8.212   -11.337  H    
     39 H           4.532    -6.981    -9.339  H    
     40 H           4.527    -8.724    -9.006  H    
     41 H           6.563    -9.704    -7.709  H    
     42 H           7.834    -8.589    -7.184  H    
     43 H           8.490    -9.876    -9.146  H    
     44 H           8.490    -8.151    -9.514  H    
     45 H           4.719    -6.437    -7.076  H    
     46 H           2.799    -7.837    -6.878  H    
     47 H           1.598    -9.580    -5.733  H    
     48 H           5.170   -10.854    -3.900  H    
     49 H           6.379    -9.108    -5.030  H    
     50 H           4.291    -6.546    -3.899  H    
     51 H           4.858    -5.058    -3.145  H    
     52 H           4.883    -2.875    -5.145  H    
     53 H           2.896    -2.217    -6.685  H    
     54 H           1.305    -4.252    -6.797  H    
     55 H           6.686    -6.829    -8.352  H    
@<TRIPOS>BOND
     1    1    6 ar
     2    1    2 ar
     3    2    3 ar
     4    3    4 ar
     5    4    5 ar
     6    4    7 1
     7    5    6 ar
     8    7   11 1
     9    7    8 1
    10    8    9 1
    11    9   31 1
    12   10   11 1
    13   10   31 1
    14   12   13 1
    15   12   20 1
    16   12   31 1
    17   13   18 ar
    18   13   14 ar
    19   14   15 ar
    20   15   16 ar
    21   16   17 ar
    22   16   19 1
    23   17   18 ar
    24   20   24 1
    25   20   21 2
    26   21   22 1
    27   22   23 2
    28   23   24 1
    29   24   25 1
    30   25   26 1
    31   26   30 1
    32   26   27 2
    33   27   28 1
    34   28   29 2
    35   29   30 1
    36    1   32 1
    37    2   33 1
    38    3   34 1
    39    5   35 1
    40    6   36 1
    41    8   37 1
    42    8   38 1
    43    9   39 1
    44    9   40 1
    45   10   41 1
    46   10   42 1
    47   11   43 1
    48   11   44 1
    49   12   45 1
    50   14   46 1
    51   15   47 1
    52   17   48 1
    53   18   49 1
    54   25   50 1
    55   25   51 1
    56   27   52 1
    57   28   53 1
    58   29   54 1
    59   31   55 1
@<TRIPOS>MOLECULE
ZINC01366165
 55 58 0 0 0
SMALL
NO_CHARGES


@<TRIPOS>ATOM
      1 C          -1.984    -6.252    -3.760  C    
      2 C          -1.860    -4.780    -4.226  C    
      3 C          -0.495    -4.226    -4.019  C    
      4 C          -0.033    -3.955    -2.705  C    
      5 C           1.263    -3.443    -2.479  C    
      6 C           2.108    -3.204    -3.579  C    
      7 C           1.649    -3.459    -4.876  C    
      8 C           0.357    -3.964    -5.123  C    
      9 C           2.689    -3.128    -5.734  C    
     10 C           3.747    -2.686    -4.932  C    
     11 N           3.380    -2.740    -3.632  N    
     12 C           4.192    -2.378    -2.507  C    
     13 N           4.899    -2.306    -5.557  N    
     14 C           4.966    -2.367    -6.876  C    
     15 N           3.945    -2.781    -7.542  N    
     16 N           2.877    -3.139    -7.035  N    
     17 S           6.397    -1.891    -7.673  S    
     18 C           6.865    -3.526    -8.305  C    
     19 C           8.135    -3.461    -8.990  C    
     20 O           9.095    -4.069    -8.530  O    
     21 N           8.220    -2.781   -10.126  N    
     22 C           9.403    -2.585   -10.924  C    
     23 C          10.386    -1.584   -10.239  C    
     24 C           9.814    -0.144   -10.191  C    
     25 C           9.427     0.359   -11.603  C    
     26 C           8.464    -0.620   -12.324  C    
     27 C           9.038    -2.074   -12.360  C    
     28 C           8.088    -3.043   -13.116  C    
     29 H          -1.278    -6.883    -4.308  H    
     30 H          -2.999    -6.617    -3.950  H    
     31 H          -1.781    -6.337    -2.688  H    
     32 H          -2.137    -4.733    -5.286  H    
     33 H          -2.579    -4.165    -3.675  H    
     34 H          -0.642    -4.126    -1.901  H    
     35 H           1.582    -3.253    -1.530  H    
     36 H           0.053    -4.146    -6.087  H    
     37 H           3.714    -1.569    -1.951  H    
     38 H           5.183    -2.042    -2.817  H    
     39 H           4.314    -3.237    -1.843  H    
     40 H           6.922    -4.228    -7.466  H    
     41 H           6.103    -3.887    -9.002  H    
     42 H           7.396    -2.385   -10.456  H    
     43 H           9.910    -3.551   -11.025  H    
     44 H          10.614    -1.911    -9.220  H    
     45 H          11.331    -1.571   -10.794  H    
     46 H           8.928    -0.126    -9.546  H    
     47 H          10.558     0.530    -9.758  H    
     48 H           8.954     1.339   -11.519  H    
     49 H          10.337     0.473   -12.202  H    
     50 H           7.501    -0.615   -11.809  H    
     51 H           8.303    -0.264   -13.343  H    
     52 H           9.967    -2.045   -12.940  H    
     53 H           8.518    -4.047   -13.152  H    
     54 H           7.937    -2.700   -14.142  H    
     55 H           7.114    -3.099   -12.622  H    
@<TRIPOS>BOND
     1    1    2 1
     2    2    3 1
     3    3    8 ar
     4    3    4 ar
     5    4    5 ar
     6    5    6 ar
     7    6   11 1
     8    6    7 ar
     9    7    8 ar
    10    7    9 1
    11    9   16 ar
    12    9   10 ar
    13   10   11 1
    14   10   13 ar
    15   11   12 1
    16   13   14 ar
    17   14   15 ar
    18   14   17 1
    19   15   16 ar
    20   17   18 1
    21   18   19 1
    22   19   20 2
    23   19   21 1
    24   21   22 1
    25   22   27 1
    26   22   23 1
    27   23   24 1
    28   24   25 1
    29   25   26 1
    30   26   27 1
    31   27   28 1
    32    1   29 1
    33    1   30 1
    34    1   31 1
    35    2   32 1
    36    2   33 1
    37    4   34 1
    38    5   35 1
    39    8   36 1
    40   12   37 1
    41   12   38 1
    42   12   39 1
    43   18   40 1
    44   18   41 1
    45   21   42 1
    46   22   43 1
    47   23   44 1
    48   23   45 1
    49   24   46 1
    50   24   47 1
    51   25   48 1
    52   25   49 1
    53   26   50 1
    54   26   51 1
    55   27   52 1
    56   28   53 1
    57   28   54 1
    58   28   55 1
@<TRIPOS>MOLECULE
ZINC01367508
 65 70 0 0 0
SMALL
NO_CHARGES


@<TRIPOS>ATOM
      1 C          10.677    -4.614    -4.420  C    
      2 C           9.418    -5.359    -4.695  C    
      3 C           9.505    -6.720    -5.063  C    
      4 C           8.350    -7.475    -5.334  C    
      5 C           7.087    -6.879    -5.252  C    
      6 C           6.964    -5.513    -4.901  C    
      7 C           8.132    -4.747    -4.609  C    
      8 N           7.914    -3.429    -4.250  N    
      9 C           6.689    -2.882    -4.201  C    
     10 C           5.535    -3.596    -4.517  C    
     11 C           5.698    -4.901    -4.837  C    
     12 C           4.206    -2.990    -4.388  C    
     13 C           2.924    -0.873    -4.263  C    
     14 C           3.370    -0.281    -2.977  C    
     15 N           4.631    -0.178    -2.547  N    
     16 N           4.595     0.376    -1.420  N    
     17 N           3.440     0.633    -1.101  N    
     18 N           2.629     0.278    -2.005  N    
     19 C           1.199     0.395    -1.943  C    
     20 C           0.670     1.640    -1.197  C    
     21 C          -0.779     1.279    -0.808  C    
     22 C          -0.861    -0.265    -0.803  C    
     23 C           0.537    -0.782    -1.200  C    
     24 C           3.937    -1.482    -6.495  C    
     25 C           4.463    -0.077    -6.948  C    
     26 C           4.278     0.164    -8.470  C    
     27 C           4.976    -0.933    -9.310  C    
     28 C           4.518    -2.347    -8.878  C    
     29 C           4.678    -2.565    -7.350  C    
     30 N           6.870    -1.621    -3.808  N    
     31 N           8.113    -1.474    -3.646  N    
     32 N           8.712    -2.515    -3.899  N    
     33 N           4.035    -1.608    -4.983  N    
     34 H          10.755    -3.771    -5.106  H    
     35 H          11.566    -5.231    -4.545  H    
     36 H          10.668    -4.248    -3.393  H    
     37 H          10.414    -7.188    -5.143  H    
     38 H           8.436    -8.464    -5.598  H    
     39 H           6.256    -7.450    -5.453  H    
     40 H           4.893    -5.458    -5.028  H    
     41 H           3.425    -3.637    -4.801  H    
     42 H           4.030    -2.957    -3.309  H    
     43 H           2.085    -1.552    -4.073  H    
     44 H           2.520    -0.044    -4.855  H    
     45 H           0.796     0.431    -2.964  H    
     46 H           1.251     1.828    -0.289  H    
     47 H           0.709     2.529    -1.834  H    
     48 H          -1.027     1.692     0.175  H    
     49 H          -1.472     1.690    -1.548  H    
     50 H          -1.146    -0.643     0.184  H    
     51 H          -1.601    -0.601    -1.535  H    
     52 H           0.470    -1.669    -1.839  H    
     53 H           1.108    -1.039    -0.302  H    
     54 H           2.878    -1.564    -6.767  H    
     55 H           3.941     0.724    -6.419  H    
     56 H           5.527     0.004    -6.699  H    
     57 H           3.210     0.174    -8.706  H    
     58 H           4.692     1.138    -8.738  H    
     59 H           4.744    -0.786   -10.369  H    
     60 H           6.061    -0.850    -9.191  H    
     61 H           3.469    -2.489    -9.155  H    
     62 H           5.110    -3.096    -9.412  H    
     63 H           5.743    -2.556    -7.106  H    
     64 H           4.284    -3.555    -7.118  H    
     65 H           4.887    -1.103    -4.744  H    
@<TRIPOS>BOND
     1    1    2 1
     2    2    7 ar
     3    2    3 ar
     4    3    4 ar
     5    4    5 ar
     6    5    6 ar
     7    6   11 1
     8    6    7 ar
     9    7    8 1
    10    8   32 1
    11    8    9 1
    12    9   10 1
    13    9   30 2
    14   10   11 2
    15   10   12 1
    16   12   33 1
    17   13   14 1
    18   13   33 1
    19   14   18 1
    20   14   15 2
    21   15   16 1
    22   16   17 2
    23   17   18 1
    24   18   19 1
    25   19   23 1
    26   19   20 1
    27   20   21 1
    28   21   22 1
    29   22   23 1
    30   24   29 1
    31   24   25 1
    32   24   33 1
    33   25   26 1
    34   26   27 1
    35   27   28 1
    36   28   29 1
    37   30   31 1
    38   31   32 2
    39    1   34 1
    40    1   35 1
    41    1   36 1
    42    3   37 1
    43    4   38 1
    44    5   39 1
    45   11   40 1
    46   12   41 1
    47   12   42 1
    48   13   43 1
    49   13   44 1
    50   19   45 1
    51   20   46 1
    52   20   47 1
    53   21   48 1
    54   21   49 1
    55   22   50 1
    56   22   51 1
    57   23   52 1
    58   23   53 1
    59   24   54 1
    60   25   55 1
    61   25   56 1
    62   26   57 1
    63   26   58 1
    64   27   59 1
    65   27   60 1
    66   28   61 1
    67   28   62 1
    68   29   63 1
    69   29   64 1
    70   33   65 1
@<TRIPOS>MOLECULE
ZINC01378125
 54 59 0 0 0
SMALL
NO_CHARGES


@<TRIPOS>ATOM
      1 C           8.790    -2.639    -1.099  C    
      2 C           7.441    -3.015    -0.980  C    
      3 C           6.697    -2.928    -2.167  C    
      4 S           7.780    -2.403    -3.394  S    
      5 C           9.167    -2.262    -2.389  C    
      6 C           5.356    -3.227    -2.324  C    
      7 O           5.076    -4.379    -2.005  O    
      8 N           4.409    -2.368    -2.769  N    
      9 C           4.681    -0.944    -2.967  C    
     10 C           5.152    -0.245    -1.739  C    
     11 C           4.376    -0.284    -0.551  C    
     12 C           4.845     0.310     0.640  C    
     13 C           6.092     0.956     0.631  C    
     14 C           6.846     1.028    -0.529  C    
     15 C           6.392     0.442    -1.723  C    
     16 O           8.013     1.667    -0.333  O    
     17 C           7.859     2.140     1.019  C    
     18 O           6.717     1.545     1.667  O    
     19 C           3.042    -2.815    -3.027  C    
     20 C           2.722    -2.824    -4.462  C    
     21 C           3.346    -3.719    -5.268  C    
     22 C           3.074    -3.800    -6.635  C    
     23 C           3.697    -4.740    -7.486  C    
     24 C           3.383    -4.778    -8.858  C    
     25 C           2.455    -3.847    -9.396  C    
     26 C           1.819    -2.919    -8.547  C    
     27 C           2.126    -2.891    -7.174  C    
     28 N           1.527    -1.997    -6.330  N    
     29 C           1.798    -1.960    -5.027  C    
     30 O           1.203    -1.114    -4.375  O    
     31 O           2.101    -3.881   -10.729  O    
     32 C           2.997    -4.602   -11.608  C    
     33 C           3.438    -5.934   -10.954  C    
     34 O           4.040    -5.682    -9.664  O    
     35 H           9.438    -2.638    -0.306  H    
     36 H           7.032    -3.306    -0.087  H    
     37 H          10.095    -1.959    -2.686  H    
     38 H           5.399    -0.840    -3.783  H    
     39 H           3.790    -0.402    -3.297  H    
     40 H           3.473    -0.766    -0.541  H    
     41 H           4.292     0.259     1.500  H    
     42 H           6.973     0.507    -2.560  H    
     43 H           8.764     1.910     1.591  H    
     44 H           7.731     3.227     1.004  H    
     45 H           2.835    -3.818    -2.645  H    
     46 H           2.364    -2.169    -2.462  H    
     47 H           4.010    -4.351    -4.878  H    
     48 H           4.383    -5.402    -7.110  H    
     49 H           1.131    -2.266    -8.931  H    
     50 H           0.876    -1.372    -6.691  H    
     51 H           2.482    -4.798   -12.553  H    
     52 H           3.879    -3.984   -11.815  H    
     53 H           2.569    -6.588   -10.826  H    
     54 H           4.164    -6.444   -11.595  H    
@<TRIPOS>BOND
     1    1    5 2
     2    1    2 1
     3    2    3 2
     4    3    4 1
     5    3    6 1
     6    4    5 1
     7    6    7 2
     8    6    8 1
     9    8    9 1
    10    8   19 1
    11    9   10 1
    12   10   15 ar
    13   10   11 ar
    14   11   12 ar
    15   12   13 ar
    16   13   18 1
    17   13   14 ar
    18   14   15 ar
    19   14   16 1
    20   16   17 1
    21   17   18 1
    22   19   20 1
    23   20   29 1
    24   20   21 2
    25   21   22 1
    26   22   27 ar
    27   22   23 ar
    28   23   24 ar
    29   24   34 1
    30   24   25 ar
    31   25   26 ar
    32   25   31 1
    33   26   27 ar
    34   27   28 1
    35   28   29 1
    36   29   30 2
    37   31   32 1
    38   32   33 1
    39   33   34 1
    40    1   35 1
    41    2   36 1
    42    5   37 1
    43    9   38 1
    44    9   39 1
    45   11   40 1
    46   12   41 1
    47   15   42 1
    48   17   43 1
    49   17   44 1
    50   19   45 1
    51   19   46 1
    52   21   47 1
    53   23   48 1
    54   26   49 1
    55   28   50 1
    56   32   51 1
    57   32   52 1
    58   33   53 1
    59   33   54 1
@<TRIPOS>MOLECULE
ZINC01378624
 32 34 0 0 0
SMALL
NO_CHARGES


@<TRIPOS>ATOM
      1 C           5.568    -7.839    -5.022  C    
      2 C           5.334    -6.452    -5.152  C    
      3 C           5.432    -5.863    -6.422  C    
      4 C           5.766    -6.622    -7.533  C    
      5 C           6.013    -8.001    -7.419  C    
      6 C           5.908    -8.629    -6.153  C    
      7 C           6.133   -10.091    -6.003  C    
      8 C           4.901   -10.789    -5.700  C    
      9 N           3.921   -10.898    -6.512  N    
     10 N           3.034   -11.508    -5.956  N    
     11 C           3.430   -11.812    -4.780  C    
     12 O           4.658   -11.376    -4.531  O    
     13 S           2.512   -12.597    -3.567  S    
     14 C           1.087   -13.179    -4.519  C    
     15 C           0.056   -13.882    -3.598  C    
     16 C          -1.144   -14.397    -4.279  C    
     17 O          -1.285   -14.380    -5.626  O    
     18 O           5.809    -5.878    -8.651  O    
     19 C           5.300    -4.615    -8.178  C    
     20 O           5.239    -4.570    -6.739  O    
     21 O          -2.122   -14.980    -3.546  O    
     22 H           5.491    -8.275    -4.098  H    
     23 H           5.088    -5.883    -4.337  H    
     24 H           6.250    -8.537    -8.256  H    
     25 H           6.554   -10.528    -6.913  H    
     26 H           6.858   -10.259    -5.201  H    
     27 H           0.615   -12.322    -5.005  H    
     28 H           1.438   -13.876    -5.282  H    
     29 H           0.542   -14.722    -3.093  H    
     30 H          -0.275   -13.169    -2.841  H    
     31 H           5.943    -3.808    -8.540  H    
     32 H           4.294    -4.459    -8.584  H    
@<TRIPOS>BOND
     1    1    6 ar
     2    1    2 ar
     3    2    3 ar
     4    3   20 1
     5    3    4 ar
     6    4    5 ar
     7    4   18 1
     8    5    6 ar
     9    6    7 1
    10    7    8 1
    11    8   12 1
    12    8    9 2
    13    9   10 1
    14   10   11 2
    15   11   12 1
    16   11   13 1
    17   13   14 1
    18   14   15 1
    19   15   16 1
    20   16   17 2
    21   16   21 1
    22   18   19 1
    23   19   20 1
    24    1   22 1
    25    2   23 1
    26    5   24 1
    27    7   25 1
    28    7   26 1
    29   14   27 1
    30   14   28 1
    31   15   29 1
    32   15   30 1
    33   19   31 1
    34   19   32 1
@<TRIPOS>MOLECULE
ZINC01379644
 54 57 0 0 0
SMALL
NO_CHARGES


@<TRIPOS>ATOM
      1 C           3.653    -3.840    -8.307  C    
      2 C           2.848    -4.699    -9.079  C    
      3 C           3.118    -6.080    -9.113  C    
      4 C           4.223    -6.594    -8.385  C    
      5 C           5.017    -5.728    -7.610  C    
      6 C           4.738    -4.342    -7.551  C    
      7 N           5.461    -3.422    -6.837  N    
      8 C           6.283    -3.572    -5.801  C    
      9 O           6.471    -4.655    -5.263  O    
     10 C           6.894    -2.387    -5.196  C    
     11 C           7.927    -1.738    -6.152  C    
     12 C           7.809    -0.240    -5.857  C    
     13 C           6.353    -0.069    -5.396  C    
     14 N           5.957    -1.340    -4.858  N    
     15 C           4.868    -1.507    -4.090  C    
     16 O           4.650    -2.596    -3.573  O    
     17 N           4.026    -0.504    -3.858  N    
     18 C           2.833    -0.519    -3.060  C    
     19 C           1.694     0.198    -3.842  C    
     20 C           0.405     0.321    -2.987  C    
     21 C           0.684     1.010    -1.624  C    
     22 C           1.825     0.304    -0.845  C    
     23 C           3.114     0.185    -1.701  C    
     24 O           4.507    -7.946    -8.368  O    
     25 C           3.930    -8.722    -9.437  C    
     26 C           2.454    -8.312    -9.663  C    
     27 O           2.356    -6.894    -9.925  O    
     28 H           3.433    -2.840    -8.296  H    
     29 H           2.069    -4.318    -9.619  H    
     30 H           5.814    -6.127    -7.109  H    
     31 H           5.311    -2.497    -7.103  H    
     32 H           7.423    -2.662    -4.276  H    
     33 H           8.939    -2.110    -5.957  H    
     34 H           7.686    -1.913    -7.207  H    
     35 H           8.493     0.033    -5.048  H    
     36 H           8.028     0.366    -6.739  H    
     37 H           6.315     0.724    -4.644  H    
     38 H           5.702     0.194    -6.236  H    
     39 H           4.252     0.349    -4.255  H    
     40 H           2.505    -1.546    -2.855  H    
     41 H           2.023     1.199    -4.140  H    
     42 H           1.469    -0.365    -4.755  H    
     43 H          -0.339     0.899    -3.541  H    
     44 H          -0.007    -0.677    -2.811  H    
     45 H           0.958     2.055    -1.797  H    
     46 H          -0.226     0.996    -1.021  H    
     47 H           2.050     0.869     0.064  H    
     48 H           1.497    -0.696    -0.547  H    
     49 H           3.862    -0.390    -1.144  H    
     50 H           3.525     1.184    -1.878  H    
     51 H           4.504    -8.558   -10.352  H    
     52 H           3.988    -9.777    -9.171  H    
     53 H           2.043    -8.853   -10.515  H    
     54 H           1.865    -8.554    -8.775  H    
@<TRIPOS>BOND
     1    1    6 ar
     2    1    2 ar
     3    2    3 ar
     4    3   27 1
     5    3    4 ar
     6    4    5 ar
     7    4   24 1
     8    5    6 ar
     9    6    7 1
    10    7    8 1
    11    8    9 2
    12    8   10 1
    13   10   14 1
    14   10   11 1
    15   11   12 1
    16   12   13 1
    17   13   14 1
    18   14   15 1
    19   15   16 2
    20   15   17 1
    21   17   18 1
    22   18   23 1
    23   18   19 1
    24   19   20 1
    25   20   21 1
    26   21   22 1
    27   22   23 1
    28   24   25 1
    29   25   26 1
    30   26   27 1
    31    1   28 1
    32    2   29 1
    33    5   30 1
    34    7   31 1
    35   10   32 1
    36   11   33 1
    37   11   34 1
    38   12   35 1
    39   12   36 1
    40   13   37 1
    41   13   38 1
    42   17   39 1
    43   18   40 1
    44   19   41 1
    45   19   42 1
    46   20   43 1
    47   20   44 1
    48   21   45 1
    49   21   46 1
    50   22   47 1
    51   22   48 1
    52   23   49 1
    53   23   50 1
    54   25   51 1
    55   25   52 1
    56   26   53 1
    57   26   54 1
@<TRIPOS>MOLECULE
ZINC01381388
 47 50 0 0 0
SMALL
NO_CHARGES


@<TRIPOS>ATOM
      1 C           2.701    -1.673    -0.917  C    
      2 C           3.778    -0.770    -0.774  C    
      3 C           5.108    -1.242    -0.744  C    
      4 C           5.352    -2.631    -0.854  C    
      5 C           4.272    -3.507    -0.980  C    
      6 C           2.942    -3.057    -1.025  C    
      7 N           4.738    -4.755    -1.026  N    
      8 C           6.080    -4.677    -0.953  C    
      9 N           6.479    -3.380    -0.856  N    
     10 C           7.836    -2.906    -0.736  C    
     11 C           8.713    -3.266    -1.896  C    
     12 C           9.851    -4.100    -1.714  C    
     13 C          10.678    -4.444    -2.800  C    
     14 C          10.386    -3.968    -4.088  C    
     15 C           9.275    -3.136    -4.291  C    
     16 C           8.448    -2.776    -3.207  C    
     17 Cl          7.162    -1.727    -3.564  Cl   
     18 F          10.176    -4.586    -0.542  F    
     19 S           7.104    -6.088    -0.931  S    
     20 C           6.147    -7.147    -2.046  C    
     21 C           6.913    -8.337    -2.389  C    
     22 O           6.510    -9.366    -1.858  O    
     23 N           7.990    -8.375    -3.201  N    
     24 C           8.536    -7.211    -3.881  C    
     25 C           8.586    -7.468    -5.410  C    
     26 O           9.289    -8.689    -5.703  O    
     27 C           8.742    -9.843    -5.028  C    
     28 C           8.702    -9.614    -3.491  C    
     29 H           1.741    -1.320    -0.940  H    
     30 H           3.591     0.232    -0.693  H    
     31 H           5.879    -0.581    -0.638  H    
     32 H           2.170    -3.719    -1.124  H    
     33 H           7.868    -1.821    -0.630  H    
     34 H           8.224    -3.306     0.205  H    
     35 H          11.492    -5.047    -2.663  H    
     36 H          10.983    -4.229    -4.878  H    
     37 H           9.079    -2.790    -5.234  H    
     38 H           5.212    -7.415    -1.536  H    
     39 H           5.870    -6.612    -2.957  H    
     40 H           7.982    -6.285    -3.720  H    
     41 H           9.554    -7.038    -3.517  H    
     42 H           7.569    -7.508    -5.815  H    
     43 H           9.113    -6.645    -5.900  H    
     44 H           7.737   -10.057    -5.403  H    
     45 H           9.376   -10.700    -5.247  H    
     46 H           9.722    -9.536    -3.113  H    
     47 H           8.259   -10.506    -3.038  H    
@<TRIPOS>BOND
     1    1    6 ar
     2    1    2 ar
     3    2    3 ar
     4    3    4 ar
     5    4    9 1
     6    4    5 ar
     7    5    6 ar
     8    5    7 1
     9    7    8 2
    10    8    9 1
    11    8   19 1
    12    9   10 1
    13   10   11 1
    14   11   16 ar
    15   11   12 ar
    16   12   13 ar
    17   12   18 1
    18   13   14 ar
    19   14   15 ar
    20   15   16 ar
    21   16   17 1
    22   19   20 1
    23   20   21 1
    24   21   22 2
    25   21   23 1
    26   23   28 1
    27   23   24 1
    28   24   25 1
    29   25   26 1
    30   26   27 1
    31   27   28 1
    32    1   29 1
    33    2   30 1
    34    3   31 1
    35    6   32 1
    36   10   33 1
    37   10   34 1
    38   13   35 1
    39   14   36 1
    40   15   37 1
    41   20   38 1
    42   20   39 1
    43   24   40 1
    44   24   41 1
    45   25   42 1
    46   25   43 1
    47   27   44 1
    48   27   45 1
    49   28   46 1
    50   28   47 1
@<TRIPOS>MOLECULE
ZINC00042954
 46 47 0 0 0
SMALL
NO_CHARGES


@<TRIPOS>ATOM
      1 C           5.698   -11.738    -2.460  C    
      2 C           5.272   -10.484    -1.806  C    
      3 C           3.913   -10.164    -1.578  C    
      4 C           3.559    -8.950    -0.950  C    
      5 C           4.554    -8.036    -0.548  C    
      6 C           5.907    -8.360    -0.758  C    
      7 C           6.263    -9.568    -1.386  C    
      8 S           4.124    -6.544     0.246  S    
      9 O           2.598    -6.172    -0.014  O    
     10 O           5.082    -5.393    -0.292  O    
     11 N           4.398    -6.753     1.893  N    
     12 C           4.404    -5.663     2.812  C    
     13 C           4.886    -6.135     4.212  C    
     14 C           4.963    -5.113     5.243  C    
     15 O           4.630    -3.954     5.009  O    
     16 N           5.377    -5.471     6.451  N    
     17 C           5.522    -4.628     7.602  C    
     18 C           6.719    -3.639     7.447  C    
     19 C           6.934    -2.797     8.730  C    
     20 C           7.097    -3.698     9.984  C    
     21 C           5.914    -4.691    10.140  C    
     22 C           5.705    -5.533     8.855  C    
     23 H           6.266   -11.499    -3.362  H    
     24 H           4.851   -12.369    -2.739  H    
     25 H           6.339   -12.299    -1.777  H    
     26 H           3.170   -10.811    -1.863  H    
     27 H           2.568    -8.747    -0.783  H    
     28 H           6.652    -7.725    -0.449  H    
     29 H           7.253    -9.782    -1.534  H    
     30 H           4.260    -7.643     2.258  H    
     31 H           5.071    -4.873     2.449  H    
     32 H           3.389    -5.261     2.893  H    
     33 H           4.206    -6.920     4.560  H    
     34 H           5.880    -6.581     4.095  H    
     35 H           5.589    -6.410     6.571  H    
     36 H           4.597    -4.053     7.740  H    
     37 H           7.632    -4.201     7.227  H    
     38 H           6.535    -2.958     6.612  H    
     39 H           7.826    -2.176     8.611  H    
     40 H           6.077    -2.131     8.871  H    
     41 H           8.033    -4.263     9.904  H    
     42 H           7.158    -3.068    10.875  H    
     43 H           6.109    -5.360    10.982  H    
     44 H           4.999    -4.133    10.357  H    
     45 H           4.815    -6.157     8.983  H    
     46 H           6.563    -6.198     8.713  H    
@<TRIPOS>BOND
     1    1    2 1
     2    2    7 ar
     3    2    3 ar
     4    3    4 ar
     5    4    5 ar
     6    5    6 ar
     7    5    8 1
     8    6    7 ar
     9    8    9 2
    10    8   10 2
    11    8   11 1
    12   11   12 1
    13   12   13 1
    14   13   14 1
    15   14   15 2
    16   14   16 1
    17   16   17 1
    18   17   22 1
    19   17   18 1
    20   18   19 1
    21   19   20 1
    22   20   21 1
    23   21   22 1
    24    1   23 1
    25    1   24 1
    26    1   25 1
    27    3   26 1
    28    4   27 1
    29    6   28 1
    30    7   29 1
    31   11   30 1
    32   12   31 1
    33   12   32 1
    34   13   33 1
    35   13   34 1
    36   16   35 1
    37   17   36 1
    38   18   37 1
    39   18   38 1
    40   19   39 1
    41   19   40 1
    42   20   41 1
    43   20   42 1
    44   21   43 1
    45   21   44 1
    46   22   45 1
    47   22   46 1
@<TRIPOS>MOLECULE
ZINC00044459
 43 44 0 0 0
SMALL
NO_CHARGES


@<TRIPOS>ATOM
      1 C           4.123    -5.674    -5.953  C    
      2 C           3.435    -4.355    -6.041  C    
      3 C           3.112    -3.846    -7.322  C    
      4 C           2.496    -2.593    -7.474  C    
      5 C           2.203    -1.818    -6.343  C    
      6 C           2.522    -2.296    -5.063  C    
      7 C           3.133    -3.566    -4.883  C    
      8 C           3.419    -3.979    -3.581  C    
      9 O           3.121    -5.113    -3.225  O    
     10 N           4.020    -3.151    -2.743  N    
     11 N           4.310    -3.453    -1.506  N    
     12 C           5.051    -2.694    -0.717  C    
     13 O           5.511    -1.630    -1.116  O    
     14 C           5.315    -3.153     0.633  C    
     15 O           6.158    -2.283     1.418  O    
     16 C           7.521    -2.190     1.219  C    
     17 C           8.262    -2.847     0.210  C    
     18 C           9.660    -2.672     0.092  C    
     19 C          10.317    -1.836     1.016  C    
     20 C           9.609    -1.176     2.044  C    
     21 C           8.212    -1.360     2.123  C    
     22 C          10.338    -0.315     3.003  C    
     23 C          10.395    -3.359    -0.994  C    
     24 H           5.058    -5.570    -5.398  H    
     25 H           4.369    -6.093    -6.934  H    
     26 H           3.483    -6.395    -5.443  H    
     27 H           3.326    -4.389    -8.165  H    
     28 H           2.274    -2.239    -8.409  H    
     29 H           1.752    -0.904    -6.454  H    
     30 H           2.283    -1.712    -4.254  H    
     31 H           4.290    -2.280    -3.079  H    
     32 H           3.982    -4.296    -1.149  H    
     33 H           4.357    -3.214     1.153  H    
     34 H           5.734    -4.165     0.611  H    
     35 H           7.787    -3.453    -0.462  H    
     36 H          11.332    -1.706     0.949  H    
     37 H           7.681    -0.879     2.854  H    
     38 H          11.084    -0.911     3.541  H    
     39 H           9.669     0.136     3.741  H    
     40 H          10.850     0.488     2.468  H    
     41 H          10.266    -4.439    -0.904  H    
     42 H          11.464    -3.141    -0.969  H    
     43 H          10.005    -3.038    -1.961  H    
@<TRIPOS>BOND
     1    1    2 1
     2    2    7 ar
     3    2    3 ar
     4    3    4 ar
     5    4    5 ar
     6    5    6 ar
     7    6    7 ar
     8    7    8 1
     9    8    9 2
    10    8   10 1
    11   10   11 1
    12   11   12 1
    13   12   13 2
    14   12   14 1
    15   14   15 1
    16   15   16 1
    17   16   21 ar
    18   16   17 ar
    19   17   18 ar
    20   18   19 ar
    21   18   23 1
    22   19   20 ar
    23   20   21 ar
    24   20   22 1
    25    1   24 1
    26    1   25 1
    27    1   26 1
    28    3   27 1
    29    4   28 1
    30    5   29 1
    31    6   30 1
    32   10   31 1
    33   11   32 1
    34   14   33 1
    35   14   34 1
    36   17   35 1
    37   19   36 1
    38   21   37 1
    39   22   38 1
    40   22   39 1
    41   22   40 1
    42   23   41 1
    43   23   42 1
    44   23   43 1
@<TRIPOS>MOLECULE
ZINC00050799
 43 44 0 0 0
SMALL
NO_CHARGES


@<TRIPOS>ATOM
      1 C           5.567   -13.382    -0.749  C    
      2 C           5.120   -12.057    -0.255  C    
      3 C           4.641   -11.062    -1.134  C    
      4 C           4.228    -9.809    -0.643  C    
      5 C           4.268    -9.508     0.746  C    
      6 C           4.752   -10.518     1.618  C    
      7 C           5.175   -11.769     1.129  C    
      8 C           3.856    -8.256     1.241  C    
      9 N           4.547    -7.742     2.229  N    
     10 N           4.577    -6.514     2.572  N    
     11 C           5.237    -6.063     3.627  C    
     12 O           5.889    -6.825     4.333  O    
     13 C           5.139    -4.650     3.948  C    
     14 N           5.727    -4.296     5.206  N    
     15 C           5.737    -3.070     5.801  C    
     16 C           5.204    -1.918     5.170  C    
     17 C           5.207    -0.671     5.818  C    
     18 C           5.740    -0.554     7.110  C    
     19 C           6.284    -1.681     7.750  C    
     20 C           6.290    -2.943     7.110  C    
     21 C           6.863    -4.114     7.829  C    
     22 C           2.746    -7.653     0.765  C    
     23 H           6.615   -13.544    -0.487  H    
     24 H           5.469   -13.470    -1.834  H    
     25 H           4.965   -14.170    -0.290  H    
     26 H           4.601   -11.237    -2.144  H    
     27 H           3.909    -9.110    -1.317  H    
     28 H           4.782   -10.363     2.629  H    
     29 H           5.515   -12.473     1.791  H    
     30 H           5.120    -8.320     2.695  H    
     31 H           4.065    -5.876     2.047  H    
     32 H           5.624    -4.080     3.151  H    
     33 H           4.081    -4.382     3.984  H    
     34 H           6.131    -5.022     5.708  H    
     35 H           4.804    -1.974     4.231  H    
     36 H           4.814     0.150     5.352  H    
     37 H           5.735     0.352     7.585  H    
     38 H           6.663    -1.571     8.696  H    
     39 H           6.096    -4.883     7.950  H    
     40 H           7.238    -3.857     8.823  H    
     41 H           7.695    -4.525     7.255  H    
     42 H           2.431    -6.790     1.134  H    
     43 H           2.179    -8.083     0.070  H    
@<TRIPOS>BOND
     1    1    2 1
     2    2    7 ar
     3    2    3 ar
     4    3    4 ar
     5    4    5 ar
     6    5    6 ar
     7    5    8 1
     8    6    7 ar
     9    8   22 2
    10    8    9 1
    11    9   10 1
    12   10   11 1
    13   11   12 2
    14   11   13 1
    15   13   14 1
    16   14   15 1
    17   15   20 ar
    18   15   16 ar
    19   16   17 ar
    20   17   18 ar
    21   18   19 ar
    22   19   20 ar
    23   20   21 1
    24    1   23 1
    25    1   24 1
    26    1   25 1
    27    3   26 1
    28    4   27 1
    29    6   28 1
    30    7   29 1
    31    9   30 1
    32   10   31 1
    33   13   32 1
    34   13   33 1
    35   14   34 1
    36   16   35 1
    37   17   36 1
    38   18   37 1
    39   19   38 1
    40   21   39 1
    41   21   40 1
    42   21   41 1
    43   22   42 1
    44   22   43 1
@<TRIPOS>MOLECULE
ZINC00056193
 46 48 0 0 0
SMALL
NO_CHARGES


@<TRIPOS>ATOM
      1 C           7.751    -0.058    -2.498  C    
      2 C           8.190    -1.426    -2.344  C    
      3 C           8.078    -2.471    -3.175  C    
      4 C           8.668    -3.492    -2.544  C    
      5 O           8.752    -4.657    -2.907  O    
      6 N           9.090    -3.050    -1.386  N    
      7 N           8.805    -1.831    -1.290  N    
      8 C           7.438    -2.523    -4.486  C    
      9 C           5.991    -2.461    -4.390  C    
     10 O           5.402    -3.393    -3.858  O    
     11 N           5.329    -1.416    -4.860  N    
     12 N           4.061    -1.291    -4.791  N    
     13 C           3.362    -0.224    -5.091  C    
     14 C           3.853     0.815    -5.800  C    
     15 C           2.032    -0.215    -4.668  C    
     16 C           1.501     0.874    -3.934  C    
     17 C           0.162     0.876    -3.506  C    
     18 C          -0.704    -0.206    -3.803  C    
     19 C          -0.170    -1.293    -4.538  C    
     20 C           1.172    -1.304    -4.953  C    
     21 C          -2.065    -0.202    -3.376  C    
     22 C          -2.860     0.970    -3.478  C    
     23 C          -4.201     0.976    -3.049  C    
     24 C          -4.775    -0.192    -2.515  C    
     25 C          -4.007    -1.366    -2.413  C    
     26 C          -2.664    -1.369    -2.835  C    
     27 H           7.059     0.192    -1.691  H    
     28 H           7.251     0.113    -3.454  H    
     29 H           8.614     0.607    -2.440  H    
     30 H           9.532    -3.583    -0.705  H    
     31 H           8.993    -1.303    -0.541  H    
     32 H           7.828    -1.703    -5.095  H    
     33 H           7.700    -3.448    -5.006  H    
     34 H           5.845    -0.696    -5.251  H    
     35 H           3.595    -2.001    -4.398  H    
     36 H           3.281     1.593    -6.040  H    
     37 H           4.788     0.821    -6.131  H    
     38 H           2.097     1.673    -3.692  H    
     39 H          -0.173     1.671    -2.955  H    
     40 H          -0.764    -2.086    -4.793  H    
     41 H           1.515    -2.107    -5.490  H    
     42 H          -2.470     1.829    -3.876  H    
     43 H          -4.762     1.828    -3.131  H    
     44 H          -5.749    -0.188    -2.202  H    
     45 H          -4.425    -2.218    -2.029  H    
     46 H          -2.120    -2.229    -2.731  H    
@<TRIPOS>BOND
     1    1    2 1
     2    2    7 1
     3    2    3 2
     4    3    4 1
     5    3    8 1
     6    4    5 2
     7    4    6 1
     8    6    7 1
     9    8    9 1
    10    9   10 2
    11    9   11 1
    12   11   12 1
    13   12   13 1
    14   13   15 1
    15   13   14 2
    16   15   20 ar
    17   15   16 ar
    18   16   17 ar
    19   17   18 ar
    20   18   19 ar
    21   18   21 1
    22   19   20 ar
    23   21   26 ar
    24   21   22 ar
    25   22   23 ar
    26   23   24 ar
    27   24   25 ar
    28   25   26 ar
    29    1   27 1
    30    1   28 1
    31    1   29 1
    32    6   30 1
    33    7   31 1
    34    8   32 1
    35    8   33 1
    36   11   34 1
    37   12   35 1
    38   14   36 1
    39   14   37 1
    40   16   38 1
    41   17   39 1
    42   19   40 1
    43   20   41 1
    44   22   42 1
    45   23   43 1
    46   24   44 1
    47   25   45 1
    48   26   46 1
@<TRIPOS>MOLECULE
ZINC00072324
 41 43 0 0 0
SMALL
NO_CHARGES


@<TRIPOS>ATOM
      1 C          -0.239     1.383    -3.066  C    
      2 C           0.622     0.191    -3.256  C    
      3 C           2.029     0.266    -3.123  C    
      4 C           2.824    -0.882    -3.299  C    
      5 C           2.237    -2.132    -3.615  C    
      6 C           0.830    -2.194    -3.770  C    
      7 C           0.033    -1.052    -3.577  C    
      8 C           2.998    -3.280    -3.825  C    
      9 N           4.008    -3.667    -3.132  N    
     10 N           4.495    -3.127    -2.092  N    
     11 C           5.552    -3.590    -1.440  C    
     12 O           6.154    -4.581    -1.833  O    
     13 C           5.977    -2.962    -0.283  C    
     14 C           5.447    -1.831     0.326  C    
     15 C           6.196    -1.591     1.477  C    
     16 N           7.135    -2.561     1.519  N    
     17 N           7.004    -3.345     0.496  N    
     18 C           6.036    -0.559     2.450  C    
     19 C           6.880    -0.510     3.584  C    
     20 C           6.725     0.489     4.559  C    
     21 C           5.716     1.456     4.420  C    
     22 C           4.847     1.450     3.302  C    
     23 C           5.024     0.429     2.332  C    
     24 N           3.864     2.393     3.174  N    
     25 O           3.096     2.415     2.251  O    
     26 O           3.692     3.349     4.046  O    
     27 H          -0.828     1.565    -3.971  H    
     28 H           0.343     2.281    -2.851  H    
     29 H          -0.924     1.211    -2.234  H    
     30 H           2.481     1.158    -2.901  H    
     31 H           3.840    -0.785    -3.232  H    
     32 H           0.374    -3.079    -4.014  H    
     33 H          -0.983    -1.132    -3.679  H    
     34 H           2.705    -3.909    -4.532  H    
     35 H           4.046    -2.347    -1.732  H    
     36 H           4.643    -1.296    -0.006  H    
     37 H           7.569    -4.115     0.326  H    
     38 H           7.624    -1.202     3.712  H    
     39 H           7.347     0.512     5.370  H    
     40 H           5.629     2.175     5.144  H    
     41 H           4.402     0.417     1.522  H    
@<TRIPOS>BOND
     1    1    2 1
     2    2    7 ar
     3    2    3 ar
     4    3    4 ar
     5    4    5 ar
     6    5    6 ar
     7    5    8 1
     8    6    7 ar
     9    8    9 2
    10    9   10 1
    11   10   11 1
    12   11   12 2
    13   11   13 1
    14   13   17 1
    15   13   14 2
    16   14   15 1
    17   15   16 2
    18   15   18 1
    19   16   17 1
    20   18   23 ar
    21   18   19 ar
    22   19   20 ar
    23   20   21 ar
    24   21   22 ar
    25   22   23 ar
    26   22   24 1
    27   24   25 2
    28   24   26 1
    29    1   27 1
    30    1   28 1
    31    1   29 1
    32    3   30 1
    33    4   31 1
    34    6   32 1
    35    7   33 1
    36    8   34 1
    37   10   35 1
    38   14   36 1
    39   17   37 1
    40   19   38 1
    41   20   39 1
    42   21   40 1
    43   23   41 1
@<TRIPOS>MOLECULE
ZINC00074534
 36 37 0 0 0
SMALL
NO_CHARGES


@<TRIPOS>ATOM
      1 C          -1.436   -10.347    -5.609  C    
      2 C          -1.147    -9.661    -4.252  C    
      3 C          -0.880   -10.713    -3.139  C    
      4 O          -0.023    -8.772    -4.456  O    
      5 C           0.229    -7.872    -3.454  C    
      6 C          -0.563    -6.719    -3.293  C    
      7 C          -0.263    -5.787    -2.284  C    
      8 C           0.855    -5.967    -1.431  C    
      9 C           1.638    -7.136    -1.601  C    
     10 C           1.338    -8.070    -2.610  C    
     11 C           1.190    -5.073    -0.412  C    
     12 N           1.001    -3.801    -0.368  N    
     13 N           0.525    -3.013    -1.242  N    
     14 C           0.354    -1.715    -1.049  C    
     15 O           0.658    -1.196     0.020  O    
     16 C          -0.170    -0.931    -2.060  C    
     17 C          -0.407     0.454    -2.032  C    
     18 C          -0.949     0.991    -3.213  C    
     19 C          -1.166     0.055    -4.227  C    
     20 S          -0.665    -1.473    -3.624  S    
     21 H          -0.577   -10.943    -5.926  H    
     22 H          -1.639    -9.591    -6.374  H    
     23 H          -2.310   -10.996    -5.533  H    
     24 H          -2.044    -9.088    -3.983  H    
     25 H          -1.726   -11.398    -3.060  H    
     26 H          -0.751   -10.219    -2.172  H    
     27 H           0.026   -11.284    -3.359  H    
     28 H          -1.367    -6.561    -3.904  H    
     29 H          -0.895    -4.994    -2.165  H    
     30 H           2.451    -7.311    -1.002  H    
     31 H           1.929    -8.897    -2.726  H    
     32 H           1.678    -5.437     0.374  H    
     33 H           0.291    -3.378    -2.111  H    
     34 H          -0.201     1.040    -1.218  H    
     35 H          -1.166     1.984    -3.321  H    
     36 H          -1.549     0.238    -5.155  H    
@<TRIPOS>BOND
     1    1    2 1
     2    2    3 1
     3    2    4 1
     4    4    5 1
     5    5   10 ar
     6    5    6 ar
     7    6    7 ar
     8    7    8 ar
     9    8    9 ar
    10    8   11 1
    11    9   10 ar
    12   11   12 2
    13   12   13 1
    14   13   14 1
    15   14   15 2
    16   14   16 1
    17   16   20 1
    18   16   17 2
    19   17   18 1
    20   18   19 2
    21   19   20 1
    22    1   21 1
    23    1   22 1
    24    1   23 1
    25    2   24 1
    26    3   25 1
    27    3   26 1
    28    3   27 1
    29    6   28 1
    30    7   29 1
    31    9   30 1
    32   10   31 1
    33   11   32 1
    34   13   33 1
    35   17   34 1
    36   18   35 1
    37   19   36 1
@<TRIPOS>MOLECULE
ZINC00082408
 31 31 0 0 0
SMALL
NO_CHARGES


@<TRIPOS>ATOM
      1 C           5.959    -7.560     0.381  C    
      2 C           4.581    -7.555     0.822  C    
      3 O           4.173    -8.554     1.398  O    
      4 N           3.828    -6.484     0.597  N    
      5 C           2.549    -6.221     0.917  C    
      6 S           1.562    -7.241     1.867  S    
      7 N           2.068    -5.002     0.609  N    
      8 C           1.043    -4.851    -0.254  C    
      9 O           0.564    -5.829    -0.822  O    
     10 C           0.441    -3.581    -0.620  C    
     11 N           2.693    -4.071     1.240  N    
     12 C           2.778    -2.802     1.424  C    
     13 C           3.713    -2.244     2.294  C    
     14 C           4.602    -3.034     3.070  C    
     15 C           5.531    -2.437     3.942  C    
     16 C           5.590    -1.038     4.055  C    
     17 C           4.719    -0.236     3.299  C    
     18 C           3.791    -0.834     2.426  C    
     19 H           6.620    -7.692     1.239  H    
     20 H           6.233    -6.625    -0.116  H    
     21 H           6.122    -8.381    -0.320  H    
     22 H           4.277    -5.769     0.119  H    
     23 H           0.039    -3.092     0.268  H    
     24 H          -0.382    -3.701    -1.331  H    
     25 H           1.190    -2.940    -1.088  H    
     26 H           2.171    -2.202     0.926  H    
     27 H           4.581    -4.055     3.012  H    
     28 H           6.165    -3.022     4.492  H    
     29 H           6.266    -0.604     4.687  H    
     30 H           4.762     0.783     3.381  H    
     31 H           3.172    -0.225     1.885  H    
@<TRIPOS>BOND
     1    1    2 1
     2    2    3 2
     3    2    4 1
     4    4    5 1
     5    5    6 2
     6    5    7 1
     7    7    8 1
     8    7   11 1
     9    8    9 2
    10    8   10 1
    11   11   12 2
    12   12   13 1
    13   13   18 ar
    14   13   14 ar
    15   14   15 ar
    16   15   16 ar
    17   16   17 ar
    18   17   18 ar
    19    1   19 1
    20    1   20 1
    21    1   21 1
    22    4   22 1
    23   10   23 1
    24   10   24 1
    25   10   25 1
    26   12   26 1
    27   14   27 1
    28   15   28 1
    29   16   29 1
    30   17   30 1
    31   18   31 1
@<TRIPOS>MOLECULE
ZINC00092136
 41 43 0 0 0
SMALL
NO_CHARGES


@<TRIPOS>ATOM
      1 C           9.013    -5.575    -2.391  C    
      2 C           7.895    -4.824    -1.766  C    
      3 C           8.117    -3.949    -0.680  C    
      4 C           7.046    -3.245    -0.098  C    
      5 C           5.745    -3.402    -0.606  C    
      6 C           5.493    -4.249    -1.712  C    
      7 C           6.579    -4.974    -2.266  C    
      8 C           4.216    -4.407    -2.244  C    
      9 N           3.282    -3.518    -2.299  N    
     10 N           3.209    -2.243    -2.091  N    
     11 C           1.921    -1.805    -1.601  C    
     12 C           1.697    -2.179    -0.114  C    
     13 O           0.451    -1.660     0.349  O    
     14 C           4.204    -1.385    -2.501  C    
     15 N           5.046    -1.787    -3.481  N    
     16 S           6.192    -0.657    -3.963  S    
     17 O           5.926    -0.007    -5.390  O    
     18 O           7.681    -0.985    -3.508  O    
     19 C           5.582     0.475    -2.818  C    
     20 C           4.513    -0.061    -2.081  C    
     21 C           4.000     0.699    -1.004  C    
     22 C           4.510     1.990    -0.737  C    
     23 C           5.555     2.518    -1.519  C    
     24 C           6.110     1.754    -2.562  C    
     25 H           8.818    -6.648    -2.322  H    
     26 H           9.967    -5.370    -1.900  H    
     27 H           9.100    -5.299    -3.444  H    
     28 H           9.059    -3.818    -0.301  H    
     29 H           7.215    -2.622     0.696  H    
     30 H           4.983    -2.899    -0.146  H    
     31 H           6.418    -5.602    -3.059  H    
     32 H           3.976    -5.298    -2.614  H    
     33 H           1.782    -0.732    -1.734  H    
     34 H           1.127    -2.272    -2.193  H    
     35 H           1.678    -3.265     0.001  H    
     36 H           2.501    -1.779     0.509  H    
     37 H           0.535    -0.687     0.264  H    
     38 H           3.287     0.325    -0.383  H    
     39 H           4.133     2.536     0.041  H    
     40 H           5.932     3.446    -1.309  H    
     41 H           6.894     2.119    -3.110  H    
@<TRIPOS>BOND
     1    1    2 1
     2    2    7 ar
     3    2    3 ar
     4    3    4 ar
     5    4    5 ar
     6    5    6 ar
     7    6    7 ar
     8    6    8 1
     9    8    9 2
    10    9   10 1
    11   10   11 1
    12   10   14 1
    13   11   12 1
    14   12   13 1
    15   14   20 1
    16   14   15 2
    17   15   16 1
    18   16   17 2
    19   16   18 2
    20   16   19 1
    21   19   24 ar
    22   19   20 ar
    23   20   21 ar
    24   21   22 ar
    25   22   23 ar
    26   23   24 ar
    27    1   25 1
    28    1   26 1
    29    1   27 1
    30    3   28 1
    31    4   29 1
    32    5   30 1
    33    7   31 1
    34    8   32 1
    35   11   33 1
    36   11   34 1
    37   12   35 1
    38   12   36 1
    39   13   37 1
    40   21   38 1
    41   22   39 1
    42   23   40 1
    43   24   41 1
@<TRIPOS>MOLECULE
ZINC00133627
 44 45 0 0 0
SMALL
NO_CHARGES


@<TRIPOS>ATOM
      1 C           4.333    -7.493    -2.543  C    
      2 C           4.446    -5.923    -2.527  C    
      3 C           5.267    -5.568    -1.244  C    
      4 C           5.269    -5.556    -3.812  C    
      5 C           3.107    -5.179    -2.516  C    
      6 C           1.870    -5.882    -2.439  C    
      7 C           0.625    -5.232    -2.505  C    
      8 C           0.570    -3.843    -2.660  C    
      9 C           1.760    -3.108    -2.717  C    
     10 C           3.016    -3.750    -2.601  C    
     11 O           4.136    -2.959    -2.686  O    
     12 C           4.342    -1.983    -1.636  C    
     13 C           5.650    -1.369    -1.727  C    
     14 O           6.415    -1.701    -2.627  O    
     15 N           5.959    -0.410    -0.859  N    
     16 C           7.113     0.325    -0.780  C    
     17 C           8.371    -0.316    -0.910  C    
     18 C           9.568     0.403    -0.777  C    
     19 C           9.527     1.774    -0.486  C    
     20 C           8.290     2.419    -0.323  C    
     21 C           7.066     1.716    -0.464  C    
     22 C           5.843     2.438    -0.321  C    
     23 O           4.674     1.994    -0.831  O    
     24 O           5.801     3.668     0.240  O    
     25 H           5.317    -7.969    -2.579  H    
     26 H           3.774    -7.828    -3.421  H    
     27 H           3.830    -7.863    -1.644  H    
     28 H           4.680    -5.787    -0.347  H    
     29 H           5.552    -4.521    -1.222  H    
     30 H           6.195    -6.145    -1.196  H    
     31 H           6.187    -6.148    -3.875  H    
     32 H           5.580    -4.512    -3.824  H    
     33 H           4.673    -5.743    -4.711  H    
     34 H           1.839    -6.893    -2.335  H    
     35 H          -0.240    -5.774    -2.459  H    
     36 H          -0.332    -3.367    -2.728  H    
     37 H           1.705    -2.095    -2.841  H    
     38 H           3.591    -1.191    -1.709  H    
     39 H           4.251    -2.459    -0.654  H    
     40 H           5.242    -0.139    -0.265  H    
     41 H           8.430    -1.322    -1.079  H    
     42 H          10.468    -0.072    -0.880  H    
     43 H          10.398     2.302    -0.390  H    
     44 H           8.299     3.421    -0.114  H    
@<TRIPOS>BOND
     1    1    2 1
     2    2    3 1
     3    2    4 1
     4    2    5 1
     5    5   10 ar
     6    5    6 ar
     7    6    7 ar
     8    7    8 ar
     9    8    9 ar
    10    9   10 ar
    11   10   11 1
    12   11   12 1
    13   12   13 1
    14   13   14 2
    15   13   15 1
    16   15   16 1
    17   16   21 ar
    18   16   17 ar
    19   17   18 ar
    20   18   19 ar
    21   19   20 ar
    22   20   21 ar
    23   21   22 1
    24   22   23 2
    25   22   24 1
    26    1   25 1
    27    1   26 1
    28    1   27 1
    29    3   28 1
    30    3   29 1
    31    3   30 1
    32    4   31 1
    33    4   32 1
    34    4   33 1
    35    6   34 1
    36    7   35 1
    37    8   36 1
    38    9   37 1
    39   12   38 1
    40   12   39 1
    41   15   40 1
    42   17   41 1
    43   18   42 1
    44   19   43 1
    45   20   44 1
@<TRIPOS>MOLECULE
ZINC00147852
 30 30 0 0 0
SMALL
NO_CHARGES


@<TRIPOS>ATOM
      1 C           5.771    -7.115     1.213  C    
      2 C           6.762    -7.720     2.006  C    
      3 C           6.913    -7.359     3.359  C    
      4 C           6.041    -6.397     3.908  C    
      5 C           5.047    -5.791     3.112  C    
      6 C           4.907    -6.131     1.744  C    
      7 N           3.980    -5.608     0.877  N    
      8 C           3.264    -4.490     0.938  C    
      9 O           3.349    -3.695     1.865  O    
     10 C           2.377    -4.193    -0.175  C    
     11 O           1.685    -2.926    -0.085  O    
     12 C           2.419    -1.770    -0.526  C    
     13 C           1.576    -0.578    -0.365  C    
     14 O           0.407    -0.475    -1.038  O    
     15 S           8.137    -8.103     4.354  S    
     16 O           9.154    -8.955     3.476  O    
     17 O           8.906    -6.943     5.125  O    
     18 N           7.417    -9.098     5.501  N    
     19 O           1.979     0.458     0.409  O    
     20 H           5.688    -7.395     0.231  H    
     21 H           7.369    -8.426     1.586  H    
     22 H           6.120    -6.136     4.894  H    
     23 H           4.422    -5.121     3.556  H    
     24 H           3.872    -6.115     0.055  H    
     25 H           2.928    -4.263    -1.120  H    
     26 H           1.603    -4.966    -0.192  H    
     27 H           3.337    -1.650     0.054  H    
     28 H           2.677    -1.864    -1.584  H    
     29 H           7.963    -9.526     6.184  H    
     30 H           6.456    -9.252     5.478  H    
@<TRIPOS>BOND
     1    1    6 ar
     2    1    2 ar
     3    2    3 ar
     4    3    4 ar
     5    3   15 1
     6    4    5 ar
     7    5    6 ar
     8    6    7 1
     9    7    8 1
    10    8    9 2
    11    8   10 1
    12   10   11 1
    13   11   12 1
    14   12   13 1
    15   13   14 2
    16   13   19 1
    17   15   16 2
    18   15   17 2
    19   15   18 1
    20    1   20 1
    21    2   21 1
    22    4   22 1
    23    5   23 1
    24    7   24 1
    25   10   25 1
    26   10   26 1
    27   12   27 1
    28   12   28 1
    29   18   29 1
    30   18   30 1
@<TRIPOS>MOLECULE
ZINC00152676
 33 34 0 0 0
SMALL
NO_CHARGES


@<TRIPOS>ATOM
      1 C          -1.684    -8.313    -2.837  C    
      2 C          -2.310    -8.163    -4.082  C    
      3 C          -1.884    -7.156    -4.963  C    
      4 C          -0.842    -6.274    -4.605  C    
      5 C          -0.162    -6.449    -3.359  C    
      6 C          -0.619    -7.469    -2.483  C    
      7 C           0.965    -5.707    -3.002  C    
      8 O           1.774    -5.385    -3.866  O    
      9 N           1.163    -5.342    -1.740  N    
     10 C           2.239    -4.533    -1.263  C    
     11 C           2.075    -4.299     0.181  C    
     12 C           1.830    -3.074     0.821  C    
     13 C           1.712    -3.158     2.219  C    
     14 C           1.863    -4.450     2.732  C    
     15 S           2.150    -5.507     1.408  S    
     16 N          -0.572    -5.298    -5.526  N    
     17 C          -0.484    -3.988    -5.312  C    
     18 O          -0.647    -3.496    -4.200  O    
     19 C          -0.246    -3.095    -6.425  C    
     20 Cl          1.345    -2.351    -6.270  Cl   
     21 H          -1.992    -9.048    -2.195  H    
     22 H          -3.079    -8.782    -4.345  H    
     23 H          -2.367    -7.054    -5.861  H    
     24 H          -0.154    -7.636    -1.586  H    
     25 H           0.495    -5.615    -1.089  H    
     26 H           3.194    -5.031    -1.436  H    
     27 H           2.243    -3.578    -1.795  H    
     28 H           1.741    -2.188     0.314  H    
     29 H           1.532    -2.343     2.815  H    
     30 H           1.813    -4.720     3.716  H    
     31 H          -0.574    -5.580    -6.456  H    
     32 H          -0.279    -3.626    -7.380  H    
     33 H          -1.008    -2.307    -6.447  H    
@<TRIPOS>BOND
     1    1    6 ar
     2    1    2 ar
     3    2    3 ar
     4    3    4 ar
     5    4    5 ar
     6    4   16 1
     7    5    6 ar
     8    5    7 1
     9    7    8 2
    10    7    9 1
    11    9   10 1
    12   10   11 1
    13   11   15 1
    14   11   12 2
    15   12   13 1
    16   13   14 2
    17   14   15 1
    18   16   17 1
    19   17   18 2
    20   17   19 1
    21   19   20 1
    22    1   21 1
    23    2   22 1
    24    3   23 1
    25    6   24 1
    26    9   25 1
    27   10   26 1
    28   10   27 1
    29   12   28 1
    30   13   29 1
    31   14   30 1
    32   16   31 1
    33   19   32 1
    34   19   33 1
@<TRIPOS>MOLECULE
ZINC00171983
 27 27 0 0 0
SMALL
NO_CHARGES


@<TRIPOS>ATOM
      1 C           7.804    -9.266     0.663  C    
      2 C           6.277    -9.451     0.593  C    
      3 O           5.640    -8.173     0.481  O    
      4 C           4.304    -7.953     0.381  C    
      5 O           3.428    -8.989     0.364  O    
      6 N           3.887    -6.675     0.289  N    
      7 N           2.664    -6.366     0.151  N    
      8 C           2.127    -5.205     0.042  C    
      9 C           2.774    -3.972     0.105  C    
     10 C           3.770    -3.729     1.084  C    
     11 C           4.397    -2.473     1.186  C    
     12 C           4.040    -1.436     0.303  C    
     13 C           3.047    -1.649    -0.670  C    
     14 C           2.405    -2.906    -0.766  C    
     15 O           1.458    -3.067    -1.735  O    
     16 Cl          2.654    -0.375    -1.721  Cl   
     17 Cl          5.575    -2.206     2.373  Cl   
     18 H           8.163    -8.766    -0.240  H    
     19 H           8.293   -10.239     0.743  H    
     20 H           8.065    -8.659     1.531  H    
     21 H           6.026   -10.061    -0.277  H    
     22 H           5.926    -9.958     1.498  H    
     23 H           4.550    -5.969     0.299  H    
     24 H           1.157    -5.205    -0.153  H    
     25 H           4.021    -4.455     1.757  H    
     26 H           4.499    -0.523     0.376  H    
     27 H           1.280    -4.030    -1.790  H    
@<TRIPOS>BOND
     1    1    2 1
     2    2    3 1
     3    3    4 1
     4    4    5 2
     5    4    6 1
     6    6    7 1
     7    7    8 2
     8    8    9 1
     9    9   14 ar
    10    9   10 ar
    11   10   11 ar
    12   11   12 ar
    13   11   17 1
    14   12   13 ar
    15   13   14 ar
    16   13   16 1
    17   14   15 1
    18    1   18 1
    19    1   19 1
    20    1   20 1
    21    2   21 1
    22    2   22 1
    23    6   23 1
    24    8   24 1
    25   10   25 1
    26   12   26 1
    27   15   27 1
@<TRIPOS>MOLECULE
ZINC00174556
 42 45 0 0 0
SMALL
NO_CHARGES


@<TRIPOS>ATOM
      1 C           5.189    -9.251    -1.119  C    
      2 C           5.026    -8.445    -2.256  C    
      3 C           4.543    -7.134    -2.122  C    
      4 C           4.230    -6.625    -0.845  C    
      5 C           4.415    -7.413     0.330  C    
      6 C           4.880    -8.744     0.157  C    
      7 C           4.086    -6.830     1.593  C    
      8 C           3.550    -5.517     1.614  C    
      9 C           3.374    -4.795     0.419  C    
     10 N           3.733    -5.368    -0.754  N    
     11 C           2.866    -3.409     0.420  C    
     12 C           1.423    -3.205     0.917  C    
     13 C           1.755    -3.006    -0.565  C    
     14 C           4.289    -7.466     2.817  C    
     15 O           3.417    -7.407     3.679  O    
     16 N           5.454    -8.033     3.090  N    
     17 N           5.721    -8.600     4.195  N    
     18 C           6.844    -9.148     4.488  C    
     19 C           7.084    -9.756     5.718  C    
     20 C           6.096    -9.839     6.733  C    
     21 C           6.373   -10.458     7.966  C    
     22 C           7.646   -11.008     8.213  C    
     23 C           8.637   -10.935     7.219  C    
     24 C           8.359   -10.317     5.985  C    
     25 O           7.931   -11.606     9.397  O    
     26 H           5.525   -10.211    -1.220  H    
     27 H           5.248    -8.816    -3.182  H    
     28 H           4.411    -6.558    -2.957  H    
     29 H           4.984    -9.374     0.953  H    
     30 H           3.311    -5.065     2.502  H    
     31 H           3.548    -2.612     0.724  H    
     32 H           0.826    -4.095     1.132  H    
     33 H           1.226    -2.285     1.470  H    
     34 H           1.774    -1.968    -0.905  H    
     35 H           1.377    -3.780    -1.236  H    
     36 H           6.144    -8.013     2.407  H    
     37 H           7.571    -9.132     3.806  H    
     38 H           5.161    -9.450     6.586  H    
     39 H           5.646   -10.507     8.684  H    
     40 H           9.564   -11.332     7.391  H    
     41 H           9.103   -10.281     5.283  H    
     42 H           7.109   -11.546     9.930  H    
@<TRIPOS>BOND
     1    1    6 ar
     2    1    2 ar
     3    2    3 ar
     4    3    4 ar
     5    4   10 ar
     6    4    5 ar
     7    5    6 ar
     8    5    7 ar
     9    7    8 ar
    10    7   14 1
    11    8    9 ar
    12    9   10 ar
    13    9   11 1
    14   11   13 1
    15   11   12 1
    16   12   13 1
    17   14   15 2
    18   14   16 1
    19   16   17 1
    20   17   18 2
    21   18   19 1
    22   19   24 ar
    23   19   20 ar
    24   20   21 ar
    25   21   22 ar
    26   22   23 ar
    27   22   25 1
    28   23   24 ar
    29    1   26 1
    30    2   27 1
    31    3   28 1
    32    6   29 1
    33    8   30 1
    34   11   31 1
    35   12   32 1
    36   12   33 1
    37   13   34 1
    38   13   35 1
    39   16   36 1
    40   18   37 1
    41   20   38 1
    42   21   39 1
    43   23   40 1
    44   24   41 1
    45   25   42 1
@<TRIPOS>MOLECULE
ZINC00182585
 47 48 0 0 0
SMALL
NO_CHARGES


@<TRIPOS>ATOM
      1 C           7.267   -11.464    -3.848  C    
      2 C           6.858   -10.397    -2.912  C    
      3 C           7.797    -9.747    -2.075  C    
      4 C           7.382    -8.740    -1.184  C    
      5 C           6.021    -8.376    -1.107  C    
      6 C           5.084    -9.002    -1.955  C    
      7 C           5.499   -10.009    -2.845  C    
      8 O           5.621    -7.384    -0.251  O    
      9 C           5.299    -7.867     1.071  C    
     10 C           5.048    -6.736     1.938  C    
     11 O           5.942    -5.916     2.093  O    
     12 N           3.896    -6.633     2.584  N    
     13 N           3.630    -5.696     3.407  N    
     14 C           2.538    -5.586     4.121  C    
     15 C           1.957    -6.697     4.635  C    
     16 C           0.810    -6.655     5.539  C    
     17 C           0.037    -5.294     5.451  C    
     18 C           0.878    -4.167     5.085  C    
     19 C           2.062    -4.317     4.443  C    
     20 C           2.835    -3.118     4.099  C    
     21 C           1.229    -7.006     6.916  C    
     22 C           0.765    -8.124     7.505  C    
     23 C           2.167    -6.139     7.643  C    
     24 H           6.741   -12.387    -3.606  H    
     25 H           8.343   -11.662    -3.804  H    
     26 H           7.018   -11.173    -4.868  H    
     27 H           8.788    -9.996    -2.114  H    
     28 H           8.074    -8.273    -0.593  H    
     29 H           4.099    -8.723    -1.923  H    
     30 H           4.803   -10.457    -3.447  H    
     31 H           4.423    -8.527     1.025  H    
     32 H           6.135    -8.437     1.495  H    
     33 H           3.229    -7.324     2.441  H    
     34 H           4.254    -5.003     3.468  H    
     35 H           2.357    -7.592     4.456  H    
     36 H           0.112    -7.410     5.155  H    
     37 H          -0.741    -5.367     4.686  H    
     38 H          -0.469    -5.081     6.399  H    
     39 H           0.516    -3.256     5.272  H    
     40 H           3.820    -3.167     4.577  H    
     41 H           2.362    -2.186     4.422  H    
     42 H           2.968    -3.060     3.014  H    
     43 H           1.047    -8.380     8.424  H    
     44 H           0.130    -8.732     7.036  H    
     45 H           3.097    -6.043     7.080  H    
     46 H           2.426    -6.521     8.636  H    
     47 H           1.734    -5.146     7.778  H    
@<TRIPOS>BOND
     1    1    2 1
     2    2    7 ar
     3    2    3 ar
     4    3    4 ar
     5    4    5 ar
     6    5    6 ar
     7    5    8 1
     8    6    7 ar
     9    8    9 1
    10    9   10 1
    11   10   11 2
    12   10   12 1
    13   12   13 1
    14   13   14 1
    15   14   19 1
    16   14   15 2
    17   15   16 1
    18   16   17 1
    19   16   21 1
    20   17   18 1
    21   18   19 2
    22   19   20 1
    23   21   22 2
    24   21   23 1
    25    1   24 1
    26    1   25 1
    27    1   26 1
    28    3   27 1
    29    4   28 1
    30    6   29 1
    31    7   30 1
    32    9   31 1
    33    9   32 1
    34   12   33 1
    35   13   34 1
    36   15   35 1
    37   16   36 1
    38   17   37 1
    39   17   38 1
    40   18   39 1
    41   20   40 1
    42   20   41 1
    43   20   42 1
    44   22   43 1
    45   22   44 1
    46   23   45 1
    47   23   46 1
    48   23   47 1
@<TRIPOS>MOLECULE
ZINC00183855
 38 39 0 0 0
SMALL
NO_CHARGES


@<TRIPOS>ATOM
      1 C           5.273   -12.437    -2.480  C    
      2 O           4.679   -11.445    -1.623  O    
      3 C           5.391   -10.933    -0.563  C    
      4 C           6.495   -11.549     0.070  C    
      5 C           7.114   -10.937     1.172  C    
      6 C           6.641    -9.704     1.658  C    
      7 C           5.539    -9.061     1.047  C    
      8 C           4.931    -9.699    -0.059  C    
      9 N           4.963    -7.884     1.450  N    
     10 C           5.322    -6.957     2.340  C    
     11 O           6.391    -7.047     2.940  O    
     12 C           4.485    -5.866     2.615  C    
     13 C           3.085    -5.938     2.405  C    
     14 C           2.219    -4.863     2.711  C    
     15 C           2.790    -3.677     3.228  C    
     16 C           4.179    -3.550     3.462  C    
     17 C           5.003    -4.662     3.154  C    
     18 N           4.702    -2.395     3.969  N    
     19 O           5.882    -2.246     4.174  O    
     20 O           3.963    -1.356     4.248  O    
     21 C           0.814    -4.975     2.513  C    
     22 O          -0.008    -3.932     2.781  O    
     23 O           0.262    -6.133     2.058  O    
     24 C          -1.124    -6.391     1.820  C    
     25 H           6.248   -12.109    -2.859  H    
     26 H           4.606   -12.593    -3.331  H    
     27 H           5.384   -13.389    -1.949  H    
     28 H           6.845   -12.450    -0.259  H    
     29 H           7.908   -11.394     1.629  H    
     30 H           7.099    -9.311     2.478  H    
     31 H           4.123    -9.260    -0.512  H    
     32 H           4.136    -7.681     0.986  H    
     33 H           2.676    -6.807     2.049  H    
     34 H           2.179    -2.890     3.455  H    
     35 H           6.011    -4.586     3.314  H    
     36 H          -1.695    -6.274     2.739  H    
     37 H          -1.242    -7.414     1.464  H    
     38 H          -1.513    -5.711     1.062  H    
@<TRIPOS>BOND
     1    1    2 1
     2    2    3 1
     3    3    8 ar
     4    3    4 ar
     5    4    5 ar
     6    5    6 ar
     7    6    7 ar
     8    7    8 ar
     9    7    9 1
    10    9   10 1
    11   10   11 2
    12   10   12 1
    13   12   17 ar
    14   12   13 ar
    15   13   14 ar
    16   14   15 ar
    17   14   21 1
    18   15   16 ar
    19   16   17 ar
    20   16   18 1
    21   18   19 2
    22   18   20 1
    23   21   22 2
    24   21   23 1
    25   23   24 1
    26    1   25 1
    27    1   26 1
    28    1   27 1
    29    4   28 1
    30    5   29 1
    31    6   30 1
    32    8   31 1
    33    9   32 1
    34   13   33 1
    35   15   34 1
    36   17   35 1
    37   24   36 1
    38   24   37 1
    39   24   38 1
@<TRIPOS>MOLECULE
ZINC00228486
 36 36 0 0 0
SMALL
NO_CHARGES


@<TRIPOS>ATOM
      1 C           7.219    -9.249    -0.091  C    
      2 C           6.098    -8.587    -0.929  C    
      3 N           4.875    -8.383    -0.154  N    
      4 C           3.874    -9.438    -0.290  C    
      5 C           2.801    -9.090    -1.350  C    
      6 C           4.672    -7.256     0.643  C    
      7 C           5.679    -6.267     0.849  C    
      8 C           5.467    -5.108     1.626  C    
      9 C           4.223    -4.872     2.249  C    
     10 C           3.225    -5.856     2.109  C    
     11 C           3.443    -7.004     1.321  C    
     12 N           3.916    -3.773     3.008  N    
     13 C           4.439    -2.551     2.980  C    
     14 O           5.271    -2.199     2.151  O    
     15 C           3.899    -1.600     3.777  C    
     16 C           4.564    -0.733     4.562  C    
     17 C           5.922    -0.693     4.826  C    
     18 O           6.759    -1.719     4.544  O    
     19 O           6.424     0.343     5.536  O    
     20 H           7.453    -8.654     0.794  H    
     21 H           8.123    -9.341    -0.697  H    
     22 H           6.913   -10.247     0.232  H    
     23 H           6.453    -7.650    -1.362  H    
     24 H           5.920    -9.230    -1.796  H    
     25 H           4.332   -10.385    -0.596  H    
     26 H           3.402    -9.664     0.671  H    
     27 H           2.280    -8.165    -1.096  H    
     28 H           2.070    -9.898    -1.414  H    
     29 H           3.268    -8.969    -2.331  H    
     30 H           6.611    -6.371     0.447  H    
     31 H           6.242    -4.454     1.752  H    
     32 H           2.314    -5.732     2.562  H    
     33 H           2.656    -7.647     1.248  H    
     34 H           3.160    -3.885     3.609  H    
     35 H           2.903    -1.507     3.741  H    
     36 H           4.010    -0.041     5.017  H    
@<TRIPOS>BOND
     1    1    2 1
     2    2    3 1
     3    3    4 1
     4    3    6 1
     5    4    5 1
     6    6   11 ar
     7    6    7 ar
     8    7    8 ar
     9    8    9 ar
    10    9   10 ar
    11    9   12 1
    12   10   11 ar
    13   12   13 1
    14   13   14 2
    15   13   15 1
    16   15   16 2
    17   16   17 1
    18   17   18 2
    19   17   19 1
    20    1   20 1
    21    1   21 1
    22    1   22 1
    23    2   23 1
    24    2   24 1
    25    4   25 1
    26    4   26 1
    27    5   27 1
    28    5   28 1
    29    5   29 1
    30    7   30 1
    31    8   31 1
    32   10   32 1
    33   11   33 1
    34   12   34 1
    35   15   35 1
    36   16   36 1
@<TRIPOS>MOLECULE
ZINC00239539
 54 56 0 0 0
SMALL
NO_CHARGES


@<TRIPOS>ATOM
      1 C           4.257   -12.594    -4.512  C    
      2 C           4.338   -12.047    -3.131  C    
      3 C           3.170   -11.499    -2.537  C    
      4 C           3.206   -10.952    -1.245  C    
      5 C           4.407   -10.940    -0.512  C    
      6 C           5.567   -11.513    -1.076  C    
      7 C           5.554   -12.055    -2.384  C    
      8 C           6.812   -12.618    -2.944  C    
      9 O           4.396   -10.417     0.752  O    
     10 C           5.152    -9.198     0.902  C    
     11 C           4.843    -8.548     2.277  C    
     12 C           5.709    -7.281     2.558  C    
     13 C           5.936    -5.046     3.602  C    
     14 C           5.344    -4.008     4.594  C    
     15 N           5.202    -4.611     5.910  N    
     16 C           4.377    -5.810     5.910  C    
     17 C           4.957    -6.876     4.945  C    
     18 C           5.804    -4.097     7.043  C    
     19 C           6.101    -2.711     7.179  C    
     20 C           6.721    -2.184     8.327  C    
     21 C           7.076    -3.035     9.383  C    
     22 C           6.804    -4.408     9.290  C    
     23 C           6.180    -4.925     8.139  C    
     24 O           5.062    -9.515     3.306  O    
     25 N           5.146    -6.319     3.565  N    
     26 H           4.928   -12.036    -5.171  H    
     27 H           3.245   -12.530    -4.928  H    
     28 H           4.552   -13.648    -4.511  H    
     29 H           2.281   -11.488    -3.049  H    
     30 H           2.353   -10.560    -0.836  H    
     31 H           6.426   -11.525    -0.520  H    
     32 H           6.681   -13.681    -3.169  H    
     33 H           7.655   -12.526    -2.254  H    
     34 H           7.078   -12.089    -3.862  H    
     35 H           6.223    -9.419     0.841  H    
     36 H           4.890    -8.483     0.113  H    
     37 H           3.788    -8.259     2.288  H    
     38 H           6.714    -7.595     2.863  H    
     39 H           5.811    -6.743     1.610  H    
     40 H           5.949    -4.587     2.609  H    
     41 H           6.971    -5.259     3.895  H    
     42 H           6.014    -3.148     4.566  H    
     43 H           4.365    -3.677     4.233  H    
     44 H           4.228    -6.254     6.895  H    
     45 H           3.375    -5.536     5.566  H    
     46 H           5.910    -7.244     5.342  H    
     47 H           4.246    -7.705     4.919  H    
     48 H           5.808    -2.045     6.466  H    
     49 H           6.908    -1.180     8.395  H    
     50 H           7.531    -2.657    10.215  H    
     51 H           7.067    -5.032    10.058  H    
     52 H           6.055    -5.935     8.096  H    
     53 H           4.434   -10.242     3.113  H    
     54 H           4.213    -6.066     3.232  H    
@<TRIPOS>BOND
     1    1    2 1
     2    2    7 ar
     3    2    3 ar
     4    3    4 ar
     5    4    5 ar
     6    5    6 ar
     7    5    9 1
     8    6    7 ar
     9    7    8 1
    10    9   10 1
    11   10   11 1
    12   11   12 1
    13   11   24 1
    14   12   25 1
    15   13   14 1
    16   13   25 1
    17   14   15 1
    18   15   16 1
    19   15   18 1
    20   16   17 1
    21   17   25 1
    22   18   23 ar
    23   18   19 ar
    24   19   20 ar
    25   20   21 ar
    26   21   22 ar
    27   22   23 ar
    28    1   26 1
    29    1   27 1
    30    1   28 1
    31    3   29 1
    32    4   30 1
    33    6   31 1
    34    8   32 1
    35    8   33 1
    36    8   34 1
    37   10   35 1
    38   10   36 1
    39   11   37 1
    40   12   38 1
    41   12   39 1
    42   13   40 1
    43   13   41 1
    44   14   42 1
    45   14   43 1
    46   16   44 1
    47   16   45 1
    48   17   46 1
    49   17   47 1
    50   19   48 1
    51   20   49 1
    52   21   50 1
    53   22   51 1
    54   23   52 1
    55   24   53 1
    56   25   54 1
@<TRIPOS>MOLECULE
ZINC00248452
 44 46 0 0 0
SMALL
NO_CHARGES


@<TRIPOS>ATOM
      1 C           4.852   -11.721     0.201  C    
      2 C           5.879   -11.255     1.045  C    
      3 C           6.407    -9.961     0.866  C    
      4 C           5.904    -9.111    -0.152  C    
      5 C           4.854    -9.585    -0.979  C    
      6 C           4.336   -10.884    -0.809  C    
      7 C           6.453    -7.741    -0.344  C    
      8 C           5.625    -6.725     0.278  C    
      9 O           5.068    -5.896    -0.430  O    
     10 N           5.472    -6.750     1.595  N    
     11 N           4.752    -5.969     2.388  N    
     12 C           4.940    -4.527     2.293  C    
     13 C           3.688    -3.731     2.110  C    
     14 C           2.708    -4.117     1.164  C    
     15 C           1.530    -3.360     1.003  C    
     16 C           1.320    -2.205     1.782  C    
     17 C           2.286    -1.805     2.721  C    
     18 C           3.462    -2.562     2.883  C    
     19 C           4.032    -6.583     3.401  C    
     20 C           3.768    -7.986     3.372  C    
     21 C           3.030    -8.626     4.386  C    
     22 C           2.528    -7.882     5.464  C    
     23 C           2.759    -6.498     5.525  C    
     24 C           3.501    -5.864     4.511  C    
     25 H           4.476   -12.663     0.325  H    
     26 H           6.246   -11.860     1.788  H    
     27 H           7.155    -9.640     1.486  H    
     28 H           4.467    -8.985    -1.714  H    
     29 H           3.583   -11.219    -1.416  H    
     30 H           7.458    -7.668     0.087  H    
     31 H           6.564    -7.554    -1.418  H    
     32 H           5.888    -7.505     2.033  H    
     33 H           5.476    -4.202     3.191  H    
     34 H           5.598    -4.263     1.460  H    
     35 H           2.837    -4.953     0.595  H    
     36 H           0.824    -3.651     0.320  H    
     37 H           0.463    -1.657     1.663  H    
     38 H           2.136    -0.968     3.287  H    
     39 H           4.159    -2.251     3.569  H    
     40 H           4.094    -8.566     2.593  H    
     41 H           2.857    -9.634     4.336  H    
     42 H           1.990    -8.345     6.204  H    
     43 H           2.397    -5.950     6.310  H    
     44 H           3.664    -4.862     4.614  H    
@<TRIPOS>BOND
     1    1    6 ar
     2    1    2 ar
     3    2    3 ar
     4    3    4 ar
     5    4    5 ar
     6    4    7 1
     7    5    6 ar
     8    7    8 1
     9    8    9 2
    10    8   10 1
    11   10   11 1
    12   11   12 1
    13   11   19 1
    14   12   13 1
    15   13   18 ar
    16   13   14 ar
    17   14   15 ar
    18   15   16 ar
    19   16   17 ar
    20   17   18 ar
    21   19   24 ar
    22   19   20 ar
    23   20   21 ar
    24   21   22 ar
    25   22   23 ar
    26   23   24 ar
    27    1   25 1
    28    2   26 1
    29    3   27 1
    30    5   28 1
    31    6   29 1
    32    7   30 1
    33    7   31 1
    34   10   32 1
    35   12   33 1
    36   12   34 1
    37   14   35 1
    38   15   36 1
    39   16   37 1
    40   17   38 1
    41   18   39 1
    42   20   40 1
    43   21   41 1
    44   22   42 1
    45   23   43 1
    46   24   44 1
@<TRIPOS>MOLECULE
ZINC00264396
 34 35 0 0 0
SMALL
NO_CHARGES


@<TRIPOS>ATOM
      1 C           6.824    -8.491     2.453  C    
      2 C           6.497    -7.559     1.479  C    
      3 C           5.282    -7.955     0.922  C    
      4 O           4.869    -9.089     1.540  O    
      5 C           5.797    -9.426     2.469  C    
      6 C           4.502    -7.249    -0.120  C    
      7 C           5.272    -7.208    -1.471  C    
      8 C           4.496    -6.588    -2.565  C    
      9 O           4.947    -5.471    -3.182  O    
     10 N           4.198    -5.925     0.327  N    
     11 S           2.924    -5.616     1.386  S    
     12 O           2.990    -4.062     1.723  O    
     13 O           1.542    -5.840     0.633  O    
     14 C           3.046    -6.524     2.867  C    
     15 C           2.357    -7.743     3.007  C    
     16 C           2.509    -8.519     4.170  C    
     17 C           3.346    -8.092     5.234  C    
     18 C           4.028    -6.857     5.076  C    
     19 C           3.892    -6.089     3.905  C    
     20 N           3.484    -8.842     6.362  N    
     21 O           4.156    -8.491     7.298  O    
     22 O           2.885    -9.996     6.513  O    
     23 O           3.352    -7.160    -3.010  O    
     24 H           7.654    -8.481     3.052  H    
     25 H           7.048    -6.733     1.228  H    
     26 H           5.745   -10.233     3.093  H    
     27 H           3.572    -7.803    -0.280  H    
     28 H           6.211    -6.659    -1.341  H    
     29 H           5.523    -8.229    -1.779  H    
     30 H           4.894    -5.253     0.258  H    
     31 H           1.750    -8.084     2.253  H    
     32 H           2.001    -9.405     4.231  H    
     33 H           4.641    -6.509     5.819  H    
     34 H           4.417    -5.216     3.817  H    
@<TRIPOS>BOND
     1    1    5 2
     2    1    2 1
     3    2    3 2
     4    3    4 1
     5    3    6 1
     6    4    5 1
     7    6    7 1
     8    6   10 1
     9    7    8 1
    10    8    9 2
    11    8   23 1
    12   10   11 1
    13   11   12 2
    14   11   13 2
    15   11   14 1
    16   14   19 ar
    17   14   15 ar
    18   15   16 ar
    19   16   17 ar
    20   17   18 ar
    21   17   20 1
    22   18   19 ar
    23   20   21 2
    24   20   22 1
    25    1   24 1
    26    2   25 1
    27    5   26 1
    28    6   27 1
    29    7   28 1
    30    7   29 1
    31   10   30 1
    32   15   31 1
    33   16   32 1
    34   18   33 1
    35   19   34 1
@<TRIPOS>MOLECULE
ZINC00279654
 42 42 0 0 0
SMALL
NO_CHARGES


@<TRIPOS>ATOM
      1 C           3.205    -9.932     0.635  C    
      2 C           4.157    -9.847    -0.584  C    
      3 C           6.169    -8.720    -1.537  C    
      4 C           7.291    -7.703    -1.223  C    
      5 C           4.173    -7.329    -0.841  C    
      6 C           4.135    -6.459     0.445  C    
      7 C           2.011    -5.189     0.112  C    
      8 C           3.938    -4.117     1.281  C    
      9 C           3.559    -2.707     0.985  C    
     10 C           2.709    -1.989     1.864  C    
     11 C           2.351    -0.652     1.599  C    
     12 C           2.837    -0.009     0.446  C    
     13 C           3.688    -0.700    -0.435  C    
     14 C           4.051    -2.037    -0.169  C    
     15 F           4.854    -2.634    -1.011  F    
     16 N           4.981    -8.590    -0.623  N    
     17 N           3.502    -5.111     0.243  N    
     18 H           3.766    -9.745     1.554  H    
     19 H           2.770   -10.934     0.694  H    
     20 H           2.393    -9.207     0.556  H    
     21 H           4.806   -10.724    -0.508  H    
     22 H           3.572    -9.952    -1.507  H    
     23 H           5.858    -8.615    -2.583  H    
     24 H           6.630    -9.707    -1.431  H    
     25 H           6.959    -6.676    -1.378  H    
     26 H           8.148    -7.891    -1.874  H    
     27 H           7.612    -7.818    -0.185  H    
     28 H           3.151    -7.566    -1.154  H    
     29 H           4.591    -6.710    -1.642  H    
     30 H           3.625    -7.003     1.248  H    
     31 H           5.177    -6.337     0.757  H    
     32 H           1.727    -5.781    -0.758  H    
     33 H           1.568    -4.201    -0.028  H    
     34 H           1.562    -5.641     1.002  H    
     35 H           5.028    -4.116     1.357  H    
     36 H           3.554    -4.430     2.257  H    
     37 H           2.337    -2.432     2.706  H    
     38 H           1.732    -0.145     2.247  H    
     39 H           2.577     0.966     0.257  H    
     40 H           4.039    -0.220    -1.268  H    
     41 H           5.382    -8.517     0.313  H    
     42 H           3.850    -4.760    -0.652  H    
@<TRIPOS>BOND
     1    1    2 1
     2    2   16 1
     3    3    4 1
     4    3   16 1
     5    5    6 1
     6    5   16 1
     7    6   17 1
     8    7   17 1
     9    8    9 1
    10    8   17 1
    11    9   14 ar
    12    9   10 ar
    13   10   11 ar
    14   11   12 ar
    15   12   13 ar
    16   13   14 ar
    17   14   15 1
    18    1   18 1
    19    1   19 1
    20    1   20 1
    21    2   21 1
    22    2   22 1
    23    3   23 1
    24    3   24 1
    25    4   25 1
    26    4   26 1
    27    4   27 1
    28    5   28 1
    29    5   29 1
    30    6   30 1
    31    6   31 1
    32    7   32 1
    33    7   33 1
    34    7   34 1
    35    8   35 1
    36    8   36 1
    37   10   37 1
    38   11   38 1
    39   12   39 1
    40   13   40 1
    41   16   41 1
    42   17   42 1
@<TRIPOS>MOLECULE
ZINC00297071
 40 41 0 0 0
SMALL
NO_CHARGES


@<TRIPOS>ATOM
      1 C           6.070    -8.251     4.502  C    
      2 C           6.077    -8.487     2.962  C    
      3 C           5.880    -9.923     2.548  C    
      4 C           5.083   -10.842     3.279  C    
      5 C           4.923   -12.174     2.851  C    
      6 C           5.558   -12.619     1.679  C    
      7 C           6.352   -11.729     0.936  C    
      8 C           6.505   -10.398     1.365  C    
      9 C           5.189    -7.499     2.109  C    
     10 C           5.587    -5.983     2.231  C    
     11 C           5.162    -5.182     3.374  C    
     12 O           4.352    -5.628     4.179  O    
     13 N           5.668    -3.956     3.471  N    
     14 C           5.511    -2.959     4.399  C    
     15 C           4.732    -3.030     5.581  C    
     16 C           4.657    -1.934     6.464  C    
     17 C           5.361    -0.750     6.185  C    
     18 C           6.140    -0.663     5.019  C    
     19 C           6.214    -1.759     4.137  C    
     20 C           3.713    -7.680     2.190  C    
     21 O           2.913    -7.060     1.289  O    
     22 O           3.111    -8.433     3.139  O    
     23 H           5.060    -8.317     4.916  H    
     24 H           6.474    -7.266     4.737  H    
     25 H           6.702    -8.990     4.995  H    
     26 H           7.113    -8.255     2.689  H    
     27 H           4.604   -10.553     4.133  H    
     28 H           4.339   -12.820     3.390  H    
     29 H           5.440   -13.585     1.366  H    
     30 H           6.813   -12.050     0.079  H    
     31 H           7.085    -9.772     0.802  H    
     32 H           5.421    -7.751     1.069  H    
     33 H           6.677    -5.930     2.185  H    
     34 H           5.212    -5.466     1.337  H    
     35 H           6.280    -3.735     2.752  H    
     36 H           4.217    -3.871     5.826  H    
     37 H           4.091    -2.001     7.316  H    
     38 H           5.305     0.044     6.827  H    
     39 H           6.658     0.198     4.814  H    
     40 H           6.794    -1.670     3.297  H    
@<TRIPOS>BOND
     1    1    2 1
     2    2    3 1
     3    2    9 1
     4    3    8 ar
     5    3    4 ar
     6    4    5 ar
     7    5    6 ar
     8    6    7 ar
     9    7    8 ar
    10    9   10 1
    11    9   20 1
    12   10   11 1
    13   11   12 2
    14   11   13 1
    15   13   14 1
    16   14   19 ar
    17   14   15 ar
    18   15   16 ar
    19   16   17 ar
    20   17   18 ar
    21   18   19 ar
    22   20   21 2
    23   20   22 1
    24    1   23 1
    25    1   24 1
    26    1   25 1
    27    2   26 1
    28    4   27 1
    29    5   28 1
    30    6   29 1
    31    7   30 1
    32    8   31 1
    33    9   32 1
    34   10   33 1
    35   10   34 1
    36   13   35 1
    37   15   36 1
    38   16   37 1
    39   17   38 1
    40   18   39 1
    41   19   40 1
@<TRIPOS>MOLECULE
ZINC00315452
 45 47 0 0 0
SMALL
NO_CHARGES


@<TRIPOS>ATOM
      1 C           7.518    -7.462     1.799  C    
      2 C           6.892    -7.985     2.947  C    
      3 C           5.514    -8.274     2.931  C    
      4 C           4.746    -8.042     1.765  C    
      5 C           5.379    -7.487     0.624  C    
      6 C           6.759    -7.212     0.641  C    
      7 C           3.376    -8.339     1.750  C    
      8 N           2.539    -7.363     1.853  N    
      9 O           2.834    -6.126     1.960  O    
     10 C           1.954    -5.113     2.119  C    
     11 O           0.621    -5.347     2.165  O    
     12 N           2.381    -3.832     2.224  N    
     13 C           3.753    -3.428     2.180  C    
     14 C           4.531    -3.857     3.466  C    
     15 C           5.997    -3.355     3.441  C    
     16 C           6.072    -1.823     3.214  C    
     17 C           5.294    -1.389     1.945  C    
     18 C           3.825    -1.887     1.975  C    
     19 C           2.899    -9.668     1.679  C    
     20 C           1.550    -9.991     1.991  C    
     21 C           1.087   -11.320     1.910  C    
     22 N           1.932   -12.308     1.528  N    
     23 C           3.229   -12.066     1.216  C    
     24 C           3.734   -10.752     1.283  C    
     25 H           8.526    -7.267     1.808  H    
     26 H           7.443    -8.163     3.792  H    
     27 H           5.074    -8.651     3.780  H    
     28 H           4.843    -7.297    -0.230  H    
     29 H           7.219    -6.840    -0.197  H    
     30 H           1.707    -3.138     2.295  H    
     31 H           4.228    -3.893     1.307  H    
     32 H           4.024    -3.461     4.351  H    
     33 H           4.541    -4.948     3.554  H    
     34 H           6.479    -3.607     4.389  H    
     35 H           6.539    -3.871     2.643  H    
     36 H           5.656    -1.310     4.086  H    
     37 H           7.116    -1.525     3.117  H    
     38 H           5.302    -0.299     1.868  H    
     39 H           5.791    -1.792     1.058  H    
     40 H           3.341    -1.625     1.028  H    
     41 H           3.283    -1.377     2.778  H    
     42 H           0.887    -9.272     2.289  H    
     43 H           0.117   -11.546     2.138  H    
     44 H           3.829   -12.839     0.929  H    
     45 H           4.710   -10.605     1.023  H    
@<TRIPOS>BOND
     1    1    6 ar
     2    1    2 ar
     3    2    3 ar
     4    3    4 ar
     5    4    5 ar
     6    4    7 1
     7    5    6 ar
     8    7    8 2
     9    7   19 1
    10    8    9 1
    11    9   10 1
    12   10   11 2
    13   10   12 1
    14   12   13 1
    15   13   18 1
    16   13   14 1
    17   14   15 1
    18   15   16 1
    19   16   17 1
    20   17   18 1
    21   19   24 ar
    22   19   20 ar
    23   20   21 ar
    24   21   22 ar
    25   22   23 ar
    26   23   24 ar
    27    1   25 1
    28    2   26 1
    29    3   27 1
    30    5   28 1
    31    6   29 1
    32   12   30 1
    33   13   31 1
    34   14   32 1
    35   14   33 1
    36   15   34 1
    37   15   35 1
    38   16   36 1
    39   16   37 1
    40   17   38 1
    41   17   39 1
    42   18   40 1
    43   18   41 1
    44   20   42 1
    45   21   43 1
    46   23   44 1
    47   24   45 1
@<TRIPOS>MOLECULE
ZINC00322493
 38 40 0 0 0
SMALL
NO_CHARGES


@<TRIPOS>ATOM
      1 C          -2.212     2.409     6.147  C    
      2 O          -2.221     2.374     4.716  O    
      3 C          -2.196     3.453     3.885  C    
      4 O          -2.170     4.710     4.395  O    
      5 C          -2.218     3.272     2.490  C    
      6 C          -2.264     2.019     1.862  C    
      7 S          -2.222     2.298     0.171  S    
      8 C          -2.152     4.011     0.312  C    
      9 N          -2.158     4.324     1.627  N    
     10 C          -2.054     4.981    -0.796  C    
     11 N          -0.841     4.833    -1.581  N    
     12 C          -0.997     4.590    -3.003  C    
     13 C          -1.902     3.469    -3.551  C    
     14 C          -0.386     3.292    -3.569  C    
     15 C           0.395     5.025    -1.076  C    
     16 O           1.394     4.928    -1.779  O    
     17 C           0.670     5.274     0.260  C    
     18 C           0.371     6.525     0.847  C    
     19 C           0.605     6.741     2.218  C    
     20 C           1.144     5.713     3.015  C    
     21 C           1.462     4.471     2.433  C    
     22 C           1.230     4.252     1.064  C    
     23 F           1.352     5.911     4.289  F    
     24 H          -1.312     2.913     6.508  H    
     25 H          -2.222     1.386     6.524  H    
     26 H          -3.097     2.931     6.512  H    
     27 H          -2.314     1.102     2.308  H    
     28 H          -2.954     4.866    -1.406  H    
     29 H          -2.096     5.996    -0.395  H    
     30 H          -0.868     5.448    -3.668  H    
     31 H          -2.422     2.834    -2.831  H    
     32 H          -2.359     3.650    -4.521  H    
     33 H           0.073     3.355    -4.556  H    
     34 H          -0.012     2.562    -2.850  H    
     35 H          -0.022     7.286     0.284  H    
     36 H           0.373     7.646     2.635  H    
     37 H           1.854     3.718     3.005  H    
     38 H           1.451     3.337     0.663  H    
@<TRIPOS>BOND
     1    1    2 1
     2    2    3 1
     3    3    4 2
     4    3    5 1
     5    5    9 1
     6    5    6 2
     7    6    7 1
     8    7    8 1
     9    8    9 2
    10    8   10 1
    11   10   11 1
    12   11   12 1
    13   11   15 1
    14   12   14 1
    15   12   13 1
    16   13   14 1
    17   15   16 2
    18   15   17 1
    19   17   22 ar
    20   17   18 ar
    21   18   19 ar
    22   19   20 ar
    23   20   21 ar
    24   20   23 1
    25   21   22 ar
    26    1   24 1
    27    1   25 1
    28    1   26 1
    29    6   27 1
    30   10   28 1
    31   10   29 1
    32   12   30 1
    33   13   31 1
    34   13   32 1
    35   14   33 1
    36   14   34 1
    37   18   35 1
    38   19   36 1
    39   21   37 1
    40   22   38 1
@<TRIPOS>MOLECULE
ZINC00360044
 45 47 0 0 0
SMALL
NO_CHARGES


@<TRIPOS>ATOM
      1 C           4.019    -2.640    -5.759  C    
      2 O           3.681    -2.982    -4.401  O    
      3 C           3.170    -1.927    -3.689  C    
      4 C           4.036    -1.083    -2.963  C    
      5 C           3.533    -0.005    -2.196  C    
      6 C           2.136     0.215    -2.176  C    
      7 C           1.266    -0.621    -2.897  C    
      8 C           1.775    -1.713    -3.635  C    
      9 O           0.947    -2.522    -4.368  O    
     10 C           0.179    -3.468    -3.595  C    
     11 C          -0.438    -4.464    -4.444  C    
     12 O          -0.148    -4.569    -5.631  O    
     13 N          -1.295    -5.326    -3.938  N    
     14 C           4.463     0.887    -1.459  C    
     15 N           5.243     0.150    -0.513  N    
     16 C           6.220     0.635     0.295  C    
     17 C           6.600     1.999     0.357  C    
     18 C           7.637     2.416     1.214  C    
     19 C           8.320     1.480     2.017  C    
     20 C           7.941     0.113     1.976  C    
     21 C           6.903    -0.296     1.114  C    
     22 O           8.623    -0.843     2.705  O    
     23 C           9.437    -0.353     3.793  C    
     24 C          10.215     0.919     3.366  C    
     25 O           9.300     1.927     2.875  O    
     26 H           3.146    -2.276    -6.308  H    
     27 H           4.381    -3.540    -6.260  H    
     28 H           4.812    -1.886    -5.795  H    
     29 H           5.042    -1.256    -3.001  H    
     30 H           1.743     0.993    -1.640  H    
     31 H           0.260    -0.437    -2.880  H    
     32 H           0.812    -3.989    -2.867  H    
     33 H          -0.613    -2.936    -3.058  H    
     34 H          -1.696    -6.000    -4.508  H    
     35 H          -1.540    -5.279    -2.996  H    
     36 H           5.126     1.363    -2.186  H    
     37 H           3.918     1.675    -0.929  H    
     38 H           5.076    -0.804    -0.464  H    
     39 H           6.126     2.703    -0.216  H    
     40 H           7.899     3.406     1.251  H    
     41 H           6.653    -1.289     1.084  H    
     42 H           8.793    -0.116     4.646  H    
     43 H          10.135    -1.137     4.094  H    
     44 H          10.765     1.326     4.216  H    
     45 H          10.931     0.664     2.579  H    
@<TRIPOS>BOND
     1    1    2 1
     2    2    3 1
     3    3    8 ar
     4    3    4 ar
     5    4    5 ar
     6    5    6 ar
     7    5   14 1
     8    6    7 ar
     9    7    8 ar
    10    8    9 1
    11    9   10 1
    12   10   11 1
    13   11   12 2
    14   11   13 1
    15   14   15 1
    16   15   16 1
    17   16   21 ar
    18   16   17 ar
    19   17   18 ar
    20   18   19 ar
    21   19   25 1
    22   19   20 ar
    23   20   21 ar
    24   20   22 1
    25   22   23 1
    26   23   24 1
    27   24   25 1
    28    1   26 1
    29    1   27 1
    30    1   28 1
    31    4   29 1
    32    6   30 1
    33    7   31 1
    34   10   32 1
    35   10   33 1
    36   13   34 1
    37   13   35 1
    38   14   36 1
    39   14   37 1
    40   15   38 1
    41   17   39 1
    42   18   40 1
    43   21   41 1
    44   23   42 1
    45   23   43 1
    46   24   44 1
    47   24   45 1
@<TRIPOS>MOLECULE
ZINC00375670
 48 49 0 0 0
SMALL
NO_CHARGES


@<TRIPOS>ATOM
      1 C           2.257    -3.944    -6.483  C    
      2 C           2.210    -4.873    -5.245  C    
      3 C           0.794    -5.063    -4.631  C    
      4 C          -0.285    -3.668    -2.834  C    
      5 C          -0.831    -2.259    -2.485  C    
      6 C          -2.000    -1.862    -3.421  C    
      7 C          -1.601    -2.019    -4.909  C    
      8 C          -1.047    -3.439    -5.189  C    
      9 O           3.205    -4.524    -4.267  O    
     10 C           3.443    -3.401    -3.536  C    
     11 O           2.658    -2.311    -3.703  O    
     12 C           4.540    -3.355    -2.637  C    
     13 C           5.522    -4.376    -2.625  C    
     14 C           6.631    -4.305    -1.759  C    
     15 C           6.786    -3.210    -0.888  C    
     16 C           5.790    -2.213    -0.844  C    
     17 C           4.694    -2.281    -1.727  C    
     18 O           5.899    -1.140    -0.002  O    
     19 C           5.506    -1.434     1.353  C    
     20 O           7.860    -3.157    -0.044  O    
     21 C           8.992    -2.476    -0.610  C    
     22 N           0.100    -3.774    -4.280  N    
     23 H           1.580    -4.313    -7.257  H    
     24 H           3.269    -3.925    -6.892  H    
     25 H           1.972    -2.925    -6.224  H    
     26 H           2.518    -5.860    -5.596  H    
     27 H           0.194    -5.646    -5.340  H    
     28 H           0.908    -5.709    -3.755  H    
     29 H           0.592    -3.849    -2.205  H    
     30 H          -1.041    -4.424    -2.587  H    
     31 H          -1.176    -2.246    -1.447  H    
     32 H          -0.024    -1.526    -2.582  H    
     33 H          -2.870    -2.495    -3.209  H    
     34 H          -2.285    -0.824    -3.228  H    
     35 H          -2.475    -1.835    -5.541  H    
     36 H          -0.836    -1.276    -5.161  H    
     37 H          -1.853    -4.171    -5.075  H    
     38 H          -0.713    -3.467    -6.230  H    
     39 H           5.455    -5.177    -3.254  H    
     40 H           7.330    -5.049    -1.778  H    
     41 H           4.002    -1.529    -1.696  H    
     42 H           4.461    -1.766     1.400  H    
     43 H           5.601    -0.522     1.941  H    
     44 H           6.152    -2.199     1.796  H    
     45 H           9.358    -2.983    -1.507  H    
     46 H           9.791    -2.479     0.130  H    
     47 H           8.757    -1.435    -0.846  H    
     48 H           0.788    -3.035    -4.434  H    
@<TRIPOS>BOND
     1    1    2 1
     2    2    3 1
     3    2    9 1
     4    3   22 1
     5    4    5 1
     6    4   22 1
     7    5    6 1
     8    6    7 1
     9    7    8 1
    10    8   22 1
    11    9   10 1
    12   10   11 2
    13   10   12 1
    14   12   17 ar
    15   12   13 ar
    16   13   14 ar
    17   14   15 ar
    18   15   16 ar
    19   15   20 1
    20   16   17 ar
    21   16   18 1
    22   18   19 1
    23   20   21 1
    24    1   23 1
    25    1   24 1
    26    1   25 1
    27    2   26 1
    28    3   27 1
    29    3   28 1
    30    4   29 1
    31    4   30 1
    32    5   31 1
    33    5   32 1
    34    6   33 1
    35    6   34 1
    36    7   35 1
    37    7   36 1
    38    8   37 1
    39    8   38 1
    40   13   39 1
    41   14   40 1
    42   17   41 1
    43   19   42 1
    44   19   43 1
    45   19   44 1
    46   21   45 1
    47   21   46 1
    48   21   47 1
    49   22   48 1
@<TRIPOS>MOLECULE
ZINC00396207
 47 49 0 0 0
SMALL
NO_CHARGES


@<TRIPOS>ATOM
      1 C           8.492   -11.247    -2.585  C    
      2 C           7.824   -10.536    -1.474  C    
      3 C           7.031   -11.213    -0.524  C    
      4 C           6.389   -10.509     0.514  C    
      5 C           6.521    -9.101     0.630  C    
      6 C           7.340    -8.436    -0.311  C    
      7 C           7.976    -9.139    -1.351  C    
      8 N           5.976    -8.312     1.611  N    
      9 C           4.937    -8.491     2.430  C    
     10 O           4.256    -9.496     2.266  O    
     11 N           4.590    -7.590     3.381  N    
     12 C           3.394    -7.771     4.207  C    
     13 C           3.716    -8.174     5.602  C    
     14 C           4.354    -9.413     5.855  C    
     15 C           4.647    -9.823     7.172  C    
     16 C           4.306    -8.996     8.255  C    
     17 C           3.677    -7.759     8.022  C    
     18 C           3.386    -7.350     6.707  C    
     19 C           5.384    -6.392     3.660  C    
     20 C           4.705    -5.141     3.230  C    
     21 C           4.301    -4.970     1.883  C    
     22 C           3.634    -3.799     1.469  C    
     23 C           3.378    -2.773     2.396  C    
     24 C           3.788    -2.919     3.734  C    
     25 C           4.444    -4.094     4.147  C    
     26 H           8.148   -10.829    -3.530  H    
     27 H           8.276   -12.315    -2.580  H    
     28 H           9.570   -11.111    -2.503  H    
     29 H           6.924   -12.230    -0.576  H    
     30 H           5.851   -11.038     1.196  H    
     31 H           7.481    -7.424    -0.254  H    
     32 H           8.558    -8.627    -2.021  H    
     33 H           6.404    -7.448     1.683  H    
     34 H           2.811    -6.846     4.193  H    
     35 H           2.709    -8.529     3.815  H    
     36 H           4.608   -10.032     5.082  H    
     37 H           5.107   -10.722     7.341  H    
     38 H           4.515    -9.295     9.214  H    
     39 H           3.432    -7.158     8.813  H    
     40 H           2.930    -6.449     6.560  H    
     41 H           5.602    -6.368     4.730  H    
     42 H           6.363    -6.393     3.183  H    
     43 H           4.477    -5.702     1.191  H    
     44 H           3.335    -3.692     0.494  H    
     45 H           2.891    -1.921     2.097  H    
     46 H           3.607    -2.167     4.405  H    
     47 H           4.731    -4.179     5.123  H    
@<TRIPOS>BOND
     1    1    2 1
     2    2    7 ar
     3    2    3 ar
     4    3    4 ar
     5    4    5 ar
     6    5    6 ar
     7    5    8 1
     8    6    7 ar
     9    8    9 1
    10    9   10 2
    11    9   11 1
    12   11   12 1
    13   11   19 1
    14   12   13 1
    15   13   18 ar
    16   13   14 ar
    17   14   15 ar
    18   15   16 ar
    19   16   17 ar
    20   17   18 ar
    21   19   20 1
    22   20   25 ar
    23   20   21 ar
    24   21   22 ar
    25   22   23 ar
    26   23   24 ar
    27   24   25 ar
    28    1   26 1
    29    1   27 1
    30    1   28 1
    31    3   29 1
    32    4   30 1
    33    6   31 1
    34    7   32 1
    35    8   33 1
    36   12   34 1
    37   12   35 1
    38   14   36 1
    39   15   37 1
    40   16   38 1
    41   17   39 1
    42   18   40 1
    43   19   41 1
    44   19   42 1
    45   21   43 1
    46   22   44 1
    47   23   45 1
    48   24   46 1
    49   25   47 1
@<TRIPOS>MOLECULE
ZINC00415266
 43 45 0 0 0
SMALL
NO_CHARGES


@<TRIPOS>ATOM
      1 C           5.329    -6.609    -4.927  C    
      2 O           4.189    -6.104    -4.210  O    
      3 C           4.269    -4.763    -3.946  C    
      4 C           4.834    -4.323    -2.733  C    
      5 C           4.906    -2.949    -2.439  C    
      6 C           4.412    -1.985    -3.348  C    
      7 C           3.819    -2.441    -4.549  C    
      8 C           3.728    -3.817    -4.845  C    
      9 O           3.175    -4.217    -6.031  O    
     10 C           1.761    -4.470    -5.944  C    
     11 N           4.465    -0.643    -3.071  N    
     12 C           5.440     0.092    -2.510  C    
     13 N           4.984     1.346    -2.497  N    
     14 N           3.830     1.312    -2.999  N    
     15 N           3.531     0.171    -3.334  N    
     16 S           7.047    -0.362    -2.021  S    
     17 C           6.877     0.072    -0.266  C    
     18 C           8.044    -0.187     0.572  C    
     19 O           9.053    -0.635     0.037  O    
     20 N           8.062     0.046     1.894  N    
     21 C           6.959     0.573     2.646  C    
     22 C           7.514     0.883     4.046  C    
     23 C           8.726    -0.047     4.172  C    
     24 C           9.205    -0.218     2.721  C    
     25 H           5.429    -6.130    -5.903  H    
     26 H           5.184    -7.677    -5.088  H    
     27 H           6.250    -6.472    -4.358  H    
     28 H           5.192    -5.004    -2.059  H    
     29 H           5.300    -2.661    -1.541  H    
     30 H           3.453    -1.766    -5.225  H    
     31 H           1.555    -5.316    -5.285  H    
     32 H           1.397    -4.719    -6.940  H    
     33 H           1.215    -3.592    -5.593  H    
     34 H           6.644     1.137    -0.208  H    
     35 H           6.033    -0.494     0.134  H    
     36 H           6.563     1.491     2.204  H    
     37 H           6.163    -0.172     2.707  H    
     38 H           7.839     1.926     4.100  H    
     39 H           6.774     0.698     4.829  H    
     40 H           9.502     0.381     4.811  H    
     41 H           8.412    -1.012     4.583  H    
     42 H           9.583    -1.235     2.577  H    
     43 H          10.000     0.497     2.492  H    
@<TRIPOS>BOND
     1    1    2 1
     2    2    3 1
     3    3    8 ar
     4    3    4 ar
     5    4    5 ar
     6    5    6 ar
     7    6    7 ar
     8    6   11 1
     9    7    8 ar
    10    8    9 1
    11    9   10 1
    12   11   15 1
    13   11   12 1
    14   12   13 2
    15   12   16 1
    16   13   14 1
    17   14   15 2
    18   16   17 1
    19   17   18 1
    20   18   19 2
    21   18   20 1
    22   20   24 1
    23   20   21 1
    24   21   22 1
    25   22   23 1
    26   23   24 1
    27    1   25 1
    28    1   26 1
    29    1   27 1
    30    4   28 1
    31    5   29 1
    32    7   30 1
    33   10   31 1
    34   10   32 1
    35   10   33 1
    36   17   34 1
    37   17   35 1
    38   21   36 1
    39   21   37 1
    40   22   38 1
    41   22   39 1
    42   23   40 1
    43   23   41 1
    44   24   42 1
    45   24   43 1
@<TRIPOS>MOLECULE
ZINC00416608
 38 40 0 0 0
SMALL
NO_CHARGES


@<TRIPOS>ATOM
      1 C           2.551   -10.563    -3.837  C    
      2 C           2.330   -11.338    -2.683  C    
      3 C           2.124   -10.708    -1.440  C    
      4 C           2.136    -9.298    -1.336  C    
      5 C           2.364    -8.532    -2.506  C    
      6 C           2.566    -9.159    -3.748  C    
      7 C           1.913    -8.621    -0.028  C    
      8 C           3.132    -8.024     0.493  C    
      9 O           4.048    -8.778     0.808  O    
     10 N           3.212    -6.705     0.636  N    
     11 C           4.236    -5.962     1.126  C    
     12 N           4.112    -4.628     1.196  N    
     13 N           5.115    -4.057     1.698  N    
     14 C           6.066    -4.845     2.036  C    
     15 S           5.772    -6.500     1.735  S    
     16 C           7.264    -4.372     2.709  C    
     17 O           6.996    -3.733     3.976  O    
     18 C           6.501    -4.558     4.955  C    
     19 C           7.357    -5.387     5.710  C    
     20 C           6.832    -6.231     6.707  C    
     21 C           5.446    -6.252     6.956  C    
     22 C           4.587    -5.409     6.220  C    
     23 C           5.116    -4.560     5.229  C    
     24 F           4.959    -7.044     7.870  F    
     25 H           2.698   -11.019    -4.739  H    
     26 H           2.318   -12.358    -2.746  H    
     27 H           1.964   -11.291    -0.612  H    
     28 H           2.378    -7.510    -2.459  H    
     29 H           2.725    -8.595    -4.588  H    
     30 H           1.131    -7.867    -0.160  H    
     31 H           1.535    -9.326     0.720  H    
     32 H           2.429    -6.201     0.356  H    
     33 H           7.983    -5.187     2.843  H    
     34 H           7.742    -3.628     2.066  H    
     35 H           8.364    -5.383     5.530  H    
     36 H           7.459    -6.837     7.242  H    
     37 H           3.578    -5.418     6.397  H    
     38 H           4.489    -3.953     4.697  H    
@<TRIPOS>BOND
     1    1    6 ar
     2    1    2 ar
     3    2    3 ar
     4    3    4 ar
     5    4    5 ar
     6    4    7 1
     7    5    6 ar
     8    7    8 1
     9    8    9 2
    10    8   10 1
    11   10   11 1
    12   11   15 1
    13   11   12 2
    14   12   13 1
    15   13   14 2
    16   14   15 1
    17   14   16 1
    18   16   17 1
    19   17   18 1
    20   18   23 ar
    21   18   19 ar
    22   19   20 ar
    23   20   21 ar
    24   21   22 ar
    25   21   24 1
    26   22   23 ar
    27    1   25 1
    28    2   26 1
    29    3   27 1
    30    5   28 1
    31    6   29 1
    32    7   30 1
    33    7   31 1
    34   10   32 1
    35   16   33 1
    36   16   34 1
    37   19   35 1
    38   20   36 1
    39   22   37 1
    40   23   38 1
@<TRIPOS>MOLECULE
ZINC00418178
 44 46 0 0 0
SMALL
NO_CHARGES


@<TRIPOS>ATOM
      1 C           6.067    -9.444    -4.409  C    
      2 C           5.609    -8.728    -3.189  C    
      3 C           5.574    -7.309    -3.203  C    
      4 C           5.141    -6.617    -2.063  C    
      5 C           4.748    -7.290    -0.909  C    
      6 C           4.772    -8.695    -0.872  C    
      7 C           5.202    -9.430    -2.008  C    
      8 C           5.212   -10.917    -1.941  C    
      9 N           4.379    -6.357    -0.007  N    
     10 C           4.540    -5.155    -0.605  C    
     11 N           5.008    -5.299    -1.858  N    
     12 C           3.884    -6.566     1.325  C    
     13 C           5.026    -6.841     2.343  C    
     14 C           4.613    -7.095     3.714  C    
     15 O           3.427    -7.109     4.031  O    
     16 N           5.556    -7.293     4.623  N    
     17 N           5.316    -7.493     5.894  N    
     18 C           6.262    -7.617     6.816  C    
     19 O           7.438    -7.549     6.466  O    
     20 C           5.954    -7.817     8.168  C    
     21 C           4.644    -7.628     8.684  C    
     22 C           4.362    -7.847    10.047  C    
     23 C           5.397    -8.254    10.907  C    
     24 N           6.647    -8.419    10.411  N    
     25 C           6.949    -8.214     9.103  C    
     26 H           6.944   -10.051    -4.174  H    
     27 H           6.342    -8.763    -5.220  H    
     28 H           5.272   -10.094    -4.778  H    
     29 H           5.848    -6.777    -4.033  H    
     30 H           4.472    -9.177    -0.023  H    
     31 H           4.552   -11.327    -2.708  H    
     32 H           4.873   -11.293    -0.974  H    
     33 H           6.225   -11.290    -2.106  H    
     34 H           4.334    -4.251    -0.175  H    
     35 H           3.328    -5.682     1.653  H    
     36 H           3.180    -7.403     1.318  H    
     37 H           5.600    -7.707     1.997  H    
     38 H           5.695    -5.973     2.344  H    
     39 H           6.483    -7.268     4.333  H    
     40 H           4.386    -7.558     6.176  H    
     41 H           3.876    -7.319     8.083  H    
     42 H           3.411    -7.711    10.406  H    
     43 H           5.213    -8.416    11.899  H    
     44 H           7.918    -8.369     8.813  H    
@<TRIPOS>BOND
     1    1    2 1
     2    2    7 ar
     3    2    3 ar
     4    3    4 ar
     5    4   11 1
     6    4    5 ar
     7    5    6 ar
     8    5    9 1
     9    6    7 ar
    10    7    8 1
    11    9   10 1
    12    9   12 1
    13   10   11 2
    14   12   13 1
    15   13   14 1
    16   14   15 2
    17   14   16 1
    18   16   17 1
    19   17   18 1
    20   18   19 2
    21   18   20 1
    22   20   25 ar
    23   20   21 ar
    24   21   22 ar
    25   22   23 ar
    26   23   24 ar
    27   24   25 ar
    28    1   26 1
    29    1   27 1
    30    1   28 1
    31    3   29 1
    32    6   30 1
    33    8   31 1
    34    8   32 1
    35    8   33 1
    36   10   34 1
    37   12   35 1
    38   12   36 1
    39   13   37 1
    40   13   38 1
    41   16   39 1
    42   17   40 1
    43   21   41 1
    44   22   42 1
    45   23   43 1
    46   25   44 1
@<TRIPOS>MOLECULE
ZINC00433284
 38 39 0 0 0
SMALL
NO_CHARGES


@<TRIPOS>ATOM
      1 C           6.468    -0.873     3.846  C    
      2 C           5.383    -1.060     4.808  C    
      3 C           4.132    -1.438     4.453  C    
      4 C           3.677    -1.690     3.165  C    
      5 C           4.231    -2.710     2.351  C    
      6 C           3.720    -2.960     1.064  C    
      7 C           2.647    -2.196     0.571  C    
      8 C           2.073    -1.193     1.373  C    
      9 C           2.578    -0.948     2.664  C    
     10 C           5.656    -0.789     6.117  C    
     11 N           5.123     0.149     6.817  N    
     12 N           4.222     0.981     6.467  N    
     13 C           3.730     1.926     7.259  C    
     14 O           4.212     2.064     8.378  O    
     15 C           2.699     2.774     6.830  C    
     16 C           1.873     2.442     5.727  C    
     17 C           0.826     3.287     5.315  C    
     18 C           0.565     4.511     5.975  C    
     19 C           1.391     4.847     7.075  C    
     20 C           2.436     3.999     7.493  C    
     21 N          -0.462     5.321     5.576  N    
     22 O          -0.719     6.360     6.121  O    
     23 O          -1.239     5.025     4.567  O    
     24 H           6.754    -1.827     3.402  H    
     25 H           7.368    -0.447     4.301  H    
     26 H           6.153    -0.191     3.054  H    
     27 H           3.426    -1.449     5.163  H    
     28 H           4.990    -3.297     2.705  H    
     29 H           4.123    -3.703     0.488  H    
     30 H           2.275    -2.380    -0.360  H    
     31 H           1.285    -0.643     1.019  H    
     32 H           2.145    -0.214     3.233  H    
     33 H           6.361    -1.326     6.564  H    
     34 H           3.865     0.905     5.570  H    
     35 H           2.006     1.565     5.215  H    
     36 H           0.254     2.997     4.517  H    
     37 H           1.241     5.718     7.587  H    
     38 H           3.006     4.291     8.290  H    
@<TRIPOS>BOND
     1    1    2 1
     2    2    3 2
     3    2   10 1
     4    3    4 1
     5    4    9 ar
     6    4    5 ar
     7    5    6 ar
     8    6    7 ar
     9    7    8 ar
    10    8    9 ar
    11   10   11 2
    12   11   12 1
    13   12   13 1
    14   13   14 2
    15   13   15 1
    16   15   20 ar
    17   15   16 ar
    18   16   17 ar
    19   17   18 ar
    20   18   19 ar
    21   18   21 1
    22   19   20 ar
    23   21   22 2
    24   21   23 1
    25    1   24 1
    26    1   25 1
    27    1   26 1
    28    3   27 1
    29    5   28 1
    30    6   29 1
    31    7   30 1
    32    8   31 1
    33    9   32 1
    34   10   33 1
    35   12   34 1
    36   16   35 1
    37   17   36 1
    38   19   37 1
    39   20   38 1
@<TRIPOS>MOLECULE
ZINC00463528
 45 46 0 0 0
SMALL
NO_CHARGES


@<TRIPOS>ATOM
      1 C           2.509    -1.896     1.416  C    
      2 C           2.903    -3.277     1.048  C    
      3 C           3.196    -4.251     2.029  C    
      4 C           3.564    -5.567     1.667  C    
      5 C           3.645    -5.901     0.296  C    
      6 C           3.380    -4.935    -0.696  C    
      7 C           2.992    -3.636    -0.315  C    
      8 O           3.440    -5.251    -2.030  O    
      9 C           4.764    -5.350    -2.606  C    
     10 C           4.608    -5.891    -4.048  C    
     11 C           5.483    -4.078    -2.603  C    
     12 O           6.557    -4.022    -2.018  O    
     13 N           4.900    -3.005    -3.125  N    
     14 C           5.337    -1.709    -3.185  C    
     15 C           6.694    -1.307    -3.175  C    
     16 C           7.044     0.055    -3.243  C    
     17 C           6.053     1.061    -3.335  C    
     18 C           4.698     0.652    -3.370  C    
     19 C           4.348    -0.710    -3.304  C    
     20 C           6.410     2.436    -3.399  C    
     21 O           5.459     3.399    -3.501  O    
     22 O           7.716     2.817    -3.366  O    
     23 C           8.222     4.154    -3.422  C    
     24 C           3.859    -6.565     2.722  C    
     25 H           3.231    -1.188     1.003  H    
     26 H           2.471    -1.753     2.498  H    
     27 H           1.522    -1.674     1.008  H    
     28 H           3.139    -4.003     3.021  H    
     29 H           3.902    -6.849     0.010  H    
     30 H           2.777    -2.946    -1.040  H    
     31 H           5.336    -6.106    -2.055  H    
     32 H           4.113    -6.865    -4.027  H    
     33 H           5.586    -6.014    -4.520  H    
     34 H           4.005    -5.213    -4.656  H    
     35 H           3.997    -3.149    -3.451  H    
     36 H           7.445    -1.998    -3.144  H    
     37 H           8.038     0.300    -3.230  H    
     38 H           3.945     1.342    -3.443  H    
     39 H           3.357    -0.968    -3.329  H    
     40 H           7.930     4.631    -4.360  H    
     41 H           9.310     4.122    -3.365  H    
     42 H           7.840     4.737    -2.582  H    
     43 H           4.698    -6.221     3.329  H    
     44 H           4.119    -7.541     2.306  H    
     45 H           2.985    -6.691     3.364  H    
@<TRIPOS>BOND
     1    1    2 1
     2    2    7 ar
     3    2    3 ar
     4    3    4 ar
     5    4    5 ar
     6    4   24 1
     7    5    6 ar
     8    6    7 ar
     9    6    8 1
    10    8    9 1
    11    9   10 1
    12    9   11 1
    13   11   12 2
    14   11   13 1
    15   13   14 1
    16   14   19 ar
    17   14   15 ar
    18   15   16 ar
    19   16   17 ar
    20   17   18 ar
    21   17   20 1
    22   18   19 ar
    23   20   21 2
    24   20   22 1
    25   22   23 1
    26    1   25 1
    27    1   26 1
    28    1   27 1
    29    3   28 1
    30    5   29 1
    31    7   30 1
    32    9   31 1
    33   10   32 1
    34   10   33 1
    35   10   34 1
    36   13   35 1
    37   15   36 1
    38   16   37 1
    39   18   38 1
    40   19   39 1
    41   23   40 1
    42   23   41 1
    43   23   42 1
    44   24   43 1
    45   24   44 1
    46   24   45 1
@<TRIPOS>MOLECULE
ZINC00527705
 46 49 0 0 0
SMALL
NO_CHARGES


@<TRIPOS>ATOM
      1 C           1.219     0.850     5.535  C    
      2 C           0.792     0.636     4.212  C    
      3 C          -0.157     1.495     3.625  C    
      4 C          -0.701     2.576     4.360  C    
      5 C          -0.263     2.782     5.689  C    
      6 C           0.692     1.926     6.271  C    
      7 C          -1.701     3.466     3.730  C    
      8 O          -1.051     4.189     2.668  O    
      9 C          -1.877     5.064     2.021  C    
     10 C          -2.568     4.664     0.859  C    
     11 C          -3.407     5.574     0.182  C    
     12 C          -3.573     6.889     0.670  C    
     13 C          -2.848     7.296     1.807  C    
     14 C          -2.003     6.391     2.479  C    
     15 O          -4.370     7.802     0.038  O    
     16 C          -5.779     7.619     0.263  C    
     17 C          -6.527     8.880    -0.231  C    
     18 N          -7.952     8.722    -0.155  N    
     19 C          -8.768     9.264     0.773  C    
     20 N         -10.051     8.917     0.565  N    
     21 C         -10.051     8.140    -0.526  C    
     22 C          -8.739     8.011    -0.984  C    
     23 C          -8.459     7.243    -2.131  C    
     24 C          -9.520     6.610    -2.807  C    
     25 C         -10.845     6.747    -2.339  C    
     26 C         -11.116     7.516    -1.190  C    
     27 H           1.907     0.226     5.959  H    
     28 H           1.173    -0.146     3.676  H    
     29 H          -0.450     1.325     2.663  H    
     30 H          -0.628     3.557     6.242  H    
     31 H           1.004     2.086     7.231  H    
     32 H          -2.525     2.856     3.343  H    
     33 H          -2.116     4.161     4.468  H    
     34 H          -2.459     3.713     0.502  H    
     35 H          -3.894     5.276    -0.665  H    
     36 H          -2.931     8.255     2.147  H    
     37 H          -1.482     6.702     3.300  H    
     38 H          -6.125     6.744    -0.293  H    
     39 H          -6.008     7.471     1.325  H    
     40 H          -6.210     9.735     0.378  H    
     41 H          -6.242     9.097    -1.264  H    
     42 H          -8.463     9.861     1.553  H    
     43 H          -7.503     7.143    -2.473  H    
     44 H          -9.331     6.054    -3.645  H    
     45 H         -11.610     6.291    -2.843  H    
     46 H         -12.072     7.623    -0.854  H    
@<TRIPOS>BOND
     1    1    6 ar
     2    1    2 ar
     3    2    3 ar
     4    3    4 ar
     5    4    5 ar
     6    4    7 1
     7    5    6 ar
     8    7    8 1
     9    8    9 1
    10    9   14 ar
    11    9   10 ar
    12   10   11 ar
    13   11   12 ar
    14   12   13 ar
    15   12   15 1
    16   13   14 ar
    17   15   16 1
    18   16   17 1
    19   17   18 1
    20   18   22 1
    21   18   19 1
    22   19   20 2
    23   20   21 1
    24   21   26 ar
    25   21   22 ar
    26   22   23 ar
    27   23   24 ar
    28   24   25 ar
    29   25   26 ar
    30    1   27 1
    31    2   28 1
    32    3   29 1
    33    5   30 1
    34    6   31 1
    35    7   32 1
    36    7   33 1
    37   10   34 1
    38   11   35 1
    39   13   36 1
    40   14   37 1
    41   16   38 1
    42   16   39 1
    43   17   40 1
    44   17   41 1
    45   19   42 1
    46   23   43 1
    47   24   44 1
    48   25   45 1
    49   26   46 1
@<TRIPOS>MOLECULE
ZINC00627240
 50 52 0 0 0
SMALL
NO_CHARGES


@<TRIPOS>ATOM
      1 C          -7.210     0.455    -5.414  C    
      2 O          -6.209     1.446    -5.123  O    
      3 C          -4.919     0.987    -5.104  C    
      4 C          -4.451     0.052    -4.157  C    
      5 C          -3.104    -0.357    -4.164  C    
      6 C          -2.164     0.180    -5.084  C    
      7 C          -2.655     1.143    -6.009  C    
      8 C          -4.007     1.535    -6.025  C    
      9 N          -0.838    -0.204    -5.081  N    
     10 C          -0.394    -1.541    -4.719  C    
     11 C           0.617    -1.496    -3.537  C    
     12 N           1.696    -0.567    -3.849  N    
     13 C           1.237     0.768    -4.208  C    
     14 C           0.248     0.714    -5.403  C    
     15 C           3.027    -0.932    -3.813  C    
     16 C           3.508    -1.934    -2.926  C    
     17 C           4.866    -2.300    -2.880  C    
     18 C           5.808    -1.687    -3.737  C    
     19 C           5.354    -0.677    -4.611  C    
     20 C           3.995    -0.317    -4.653  C    
     21 N           7.149    -1.968    -3.753  N    
     22 C           7.781    -3.084    -3.416  C    
     23 O           7.200    -4.124    -3.142  O    
     24 C           9.124    -3.118    -3.533  C    
     25 C          10.005    -3.320    -2.537  C    
     26 C           9.739    -3.493    -1.189  C    
     27 O           8.506    -3.415    -0.650  O    
     28 O          10.761    -3.679    -0.328  O    
     29 H          -6.968    -0.135    -6.310  H    
     30 H          -8.159     0.971    -5.585  H    
     31 H          -7.338    -0.216    -4.558  H    
     32 H          -5.084    -0.331    -3.455  H    
     33 H          -2.807    -1.005    -3.433  H    
     34 H          -2.044     1.541    -6.724  H    
     35 H          -4.327     2.224    -6.712  H    
     36 H          -1.208    -2.229    -4.471  H    
     37 H           0.114    -1.979    -5.584  H    
     38 H           0.102    -1.173    -2.627  H    
     39 H           0.957    -2.520    -3.382  H    
     40 H           0.705     1.186    -3.346  H    
     41 H           2.038     1.474    -4.428  H    
     42 H           0.770     0.382    -6.306  H    
     43 H          -0.092     1.739    -5.576  H    
     44 H           2.884    -2.378    -2.254  H    
     45 H           5.156    -2.999    -2.193  H    
     46 H           6.010    -0.206    -5.243  H    
     47 H           3.721     0.370    -5.357  H    
     48 H           7.716    -1.262    -4.104  H    
     49 H           9.491    -2.959    -4.446  H    
     50 H          10.966    -3.333    -2.798  H    
@<TRIPOS>BOND
     1    1    2 1
     2    2    3 1
     3    3    8 ar
     4    3    4 ar
     5    4    5 ar
     6    5    6 ar
     7    6    7 ar
     8    6    9 1
     9    7    8 ar
    10    9   14 1
    11    9   10 1
    12   10   11 1
    13   11   12 1
    14   12   13 1
    15   12   15 1
    16   13   14 1
    17   15   20 ar
    18   15   16 ar
    19   16   17 ar
    20   17   18 ar
    21   18   19 ar
    22   18   21 1
    23   19   20 ar
    24   21   22 1
    25   22   23 2
    26   22   24 1
    27   24   25 2
    28   25   26 1
    29   26   27 2
    30   26   28 1
    31    1   29 1
    32    1   30 1
    33    1   31 1
    34    4   32 1
    35    5   33 1
    36    7   34 1
    37    8   35 1
    38   10   36 1
    39   10   37 1
    40   11   38 1
    41   11   39 1
    42   13   40 1
    43   13   41 1
    44   14   42 1
    45   14   43 1
    46   16   44 1
    47   17   45 1
    48   19   46 1
    49   20   47 1
    50   21   48 1
    51   24   49 1
    52   25   50 1
@<TRIPOS>MOLECULE
ZINC00629951
 53 56 0 0 0
SMALL
NO_CHARGES


@<TRIPOS>ATOM
      1 C         -12.095     7.504     4.046  C    
      2 C         -11.274     8.675     4.307  C    
      3 C         -11.795     9.903     4.562  C    
      4 C         -10.997    10.997     4.807  C    
      5 C          -9.652    10.872     4.794  C    
      6 N          -9.113     9.665     4.533  N    
      7 C          -9.876     8.575     4.295  C    
      8 N          -9.082     7.514     4.069  N    
      9 C          -7.799     7.921     4.162  C    
     10 C          -7.828     9.287     4.461  C    
     11 C          -6.668     7.072     3.979  C    
     12 C          -6.836     5.676     3.805  C    
     13 C          -5.734     4.824     3.617  C    
     14 C          -4.416     5.343     3.579  C    
     15 C          -4.244     6.731     3.763  C    
     16 C          -5.347     7.581     3.957  C    
     17 N          -3.272     4.617     3.393  N    
     18 C          -3.085     3.399     2.895  C    
     19 O          -4.001     2.689     2.498  O    
     20 C          -1.727     2.910     2.720  C    
     21 C          -1.360     2.758     1.284  C    
     22 C          -1.332     3.886     0.432  C    
     23 C          -1.007     3.750    -0.929  C    
     24 C          -0.673     2.486    -1.460  C    
     25 C          -0.696     1.349    -0.623  C    
     26 C          -1.019     1.496     0.744  C    
     27 O          -0.352     0.126    -1.139  O    
     28 C          -1.475    -0.729    -1.408  C    
     29 O          -0.399     2.348    -2.795  O    
     30 C           0.970     2.613    -3.137  C    
     31 H         -11.868     7.114     3.053  H    
     32 H         -13.165     7.723     4.090  H    
     33 H         -11.879     6.729     4.787  H    
     34 H         -12.780    10.031     4.574  H    
     35 H         -11.411    11.880     4.996  H    
     36 H          -9.072    11.656     4.976  H    
     37 H          -7.026     9.900     4.613  H    
     38 H          -7.769     5.258     3.821  H    
     39 H          -5.911     3.823     3.527  H    
     40 H          -3.304     7.141     3.745  H    
     41 H          -5.167     8.580     4.070  H    
     42 H          -2.455     5.095     3.605  H    
     43 H          -1.002     3.589     3.179  H    
     44 H          -1.643     1.958     3.253  H    
     45 H          -1.564     4.814     0.794  H    
     46 H          -1.011     4.576    -1.532  H    
     47 H          -1.019     0.673     1.346  H    
     48 H          -1.889    -1.114    -0.470  H    
     49 H          -1.119    -1.578    -1.998  H    
     50 H          -2.263    -0.215    -1.975  H    
     51 H           1.215     3.662    -2.982  H    
     52 H           1.111     2.390    -4.196  H    
     53 H           1.651     1.987    -2.555  H    
@<TRIPOS>BOND
     1    1    2 1
     2    2    7 1
     3    2    3 2
     4    3    4 1
     5    4    5 2
     6    5    6 1
     7    6   10 1
     8    6    7 1
     9    7    8 2
    10    8    9 1
    11    9   10 2
    12    9   11 1
    13   11   16 ar
    14   11   12 ar
    15   12   13 ar
    16   13   14 ar
    17   14   15 ar
    18   14   17 1
    19   15   16 ar
    20   17   18 1
    21   18   19 2
    22   18   20 1
    23   20   21 1
    24   21   26 ar
    25   21   22 ar
    26   22   23 ar
    27   23   24 ar
    28   24   25 ar
    29   24   29 1
    30   25   26 ar
    31   25   27 1
    32   27   28 1
    33   29   30 1
    34    1   31 1
    35    1   32 1
    36    1   33 1
    37    3   34 1
    38    4   35 1
    39    5   36 1
    40   10   37 1
    41   12   38 1
    42   13   39 1
    43   15   40 1
    44   16   41 1
    45   17   42 1
    46   20   43 1
    47   20   44 1
    48   22   45 1
    49   23   46 1
    50   26   47 1
    51   28   48 1
    52   28   49 1
    53   28   50 1
    54   30   51 1
    55   30   52 1
    56   30   53 1
@<TRIPOS>MOLECULE
ZINC00637063
 46 47 0 0 0
SMALL
NO_CHARGES


@<TRIPOS>ATOM
      1 C           3.302    -1.391     0.393  C    
      2 C           2.310    -1.232     1.577  C    
      3 C           2.489    -2.407     2.578  C    
      4 C           2.467     0.169     2.246  C    
      5 C           1.345     0.535     3.255  C    
      6 N           1.500     1.872     3.770  N    
      7 C           2.372     2.261     4.729  C    
      8 C           3.326     1.613     5.510  C    
      9 O           3.534     0.412     5.422  O    
     10 N           4.036     2.318     6.394  N    
     11 C           3.875     3.631     6.573  C    
     12 O           4.587     4.154     7.421  O    
     13 N           2.965     4.326     5.861  N    
     14 C           2.204     3.631     4.934  C    
     15 N           1.238     4.051     4.107  N    
     16 C           0.821     2.988     3.396  C    
     17 S          -0.427     3.074     2.178  S    
     18 C          -0.100     4.698     1.421  C    
     19 C           1.260     4.730     0.671  C    
     20 C          -1.220     5.014     0.508  C    
     21 O          -1.441     4.244    -0.583  O    
     22 O          -2.020     6.082     0.772  O    
     23 C          -3.151     6.499     0.004  C    
     24 C           2.784     5.745     6.061  C    
     25 H           4.334    -1.339     0.747  H    
     26 H           3.145    -0.604    -0.344  H    
     27 H           3.151    -2.350    -0.103  H    
     28 H           1.300    -1.299     1.161  H    
     29 H           2.365    -3.364     2.067  H    
     30 H           1.744    -2.362     3.375  H    
     31 H           3.484    -2.381     3.031  H    
     32 H           3.440     0.226     2.744  H    
     33 H           2.455     0.935     1.465  H    
     34 H           0.382     0.439     2.753  H    
     35 H           1.332    -0.162     4.097  H    
     36 H           4.699     1.854     6.933  H    
     37 H          -0.076     5.450     2.219  H    
     38 H           2.085     4.556     1.364  H    
     39 H           1.408     5.710     0.204  H    
     40 H           1.291     3.964    -0.107  H    
     41 H          -2.862     6.697    -1.034  H    
     42 H          -3.559     7.414     0.437  H    
     43 H          -3.921     5.724     0.023  H    
     44 H           2.491     5.937     7.098  H    
     45 H           2.015     6.172     5.410  H    
     46 H           3.725     6.267     5.858  H    
@<TRIPOS>BOND
     1    1    2 1
     2    2    3 1
     3    2    4 1
     4    4    5 1
     5    5    6 1
     6    6   16 1
     7    6    7 1
     8    7   14 2
     9    7    8 1
    10    8    9 2
    11    8   10 1
    12   10   11 1
    13   11   12 2
    14   11   13 1
    15   13   14 1
    16   13   24 1
    17   14   15 1
    18   15   16 2
    19   16   17 1
    20   17   18 1
    21   18   19 1
    22   18   20 1
    23   20   21 2
    24   20   22 1
    25   22   23 1
    26    1   25 1
    27    1   26 1
    28    1   27 1
    29    2   28 1
    30    3   29 1
    31    3   30 1
    32    3   31 1
    33    4   32 1
    34    4   33 1
    35    5   34 1
    36    5   35 1
    37   10   36 1
    38   18   37 1
    39   19   38 1
    40   19   39 1
    41   19   40 1
    42   23   41 1
    43   23   42 1
    44   23   43 1
    45   24   44 1
    46   24   45 1
    47   24   46 1
@<TRIPOS>MOLECULE
ZINC00646565
 48 51 0 0 0
SMALL
NO_CHARGES


@<TRIPOS>ATOM
      1 C           9.685    -1.512    -2.241  C    
      2 C           8.317    -1.456    -1.706  C    
      3 C           7.415    -0.407    -1.781  C    
      4 C           6.261    -0.834    -1.126  C    
      5 N           6.507    -2.099    -0.697  N    
      6 N           7.713    -2.454    -1.043  N    
      7 C           5.688    -2.945     0.011  C    
      8 C           5.660    -4.332    -0.292  C    
      9 C           4.842    -5.214     0.437  C    
     10 C           4.045    -4.728     1.496  C    
     11 C           4.073    -3.357     1.819  C    
     12 C           4.887    -2.473     1.084  C    
     13 N           5.075    -0.172    -0.972  N    
     14 C           4.791     1.110    -1.169  C    
     15 O           5.633     1.927    -1.519  O    
     16 C           3.457     1.599    -0.880  C    
     17 S           2.689     2.283    -2.373  S    
     18 C           1.114     2.700    -1.759  C    
     19 N           0.852     2.881    -0.438  N    
     20 C          -0.378     3.209     0.044  C    
     21 C          -1.425     3.373    -0.890  C    
     22 C          -1.156     3.194    -2.269  C    
     23 N           0.107     2.864    -2.649  N    
     24 C          -2.224     3.363    -3.284  C    
     25 F          -2.726     4.640    -3.232  F    
     26 F          -1.781     3.149    -4.566  F    
     27 F          -3.245     2.475    -3.049  F    
     28 C          -0.553     3.364     1.441  C    
     29 C           0.437     3.224     2.432  C    
     30 C          -0.002     3.430     3.752  C    
     31 C          -1.358     3.742     3.862  C    
     32 S          -2.014     3.756     2.275  S    
     33 H          10.391    -1.656    -1.422  H    
     34 H           9.938    -0.588    -2.768  H    
     35 H           9.774    -2.348    -2.937  H    
     36 H           7.572     0.488    -2.247  H    
     37 H           6.233    -4.707    -1.057  H    
     38 H           4.821    -6.214     0.201  H    
     39 H           3.456    -5.372     2.032  H    
     40 H           3.509    -3.006     2.599  H    
     41 H           4.915    -1.485     1.358  H    
     42 H           4.337    -0.704    -0.639  H    
     43 H           2.822     0.792    -0.498  H    
     44 H           3.522     2.375    -0.109  H    
     45 H          -2.369     3.620    -0.580  H    
     46 H           1.413     2.991     2.221  H    
     47 H           0.620     3.361     4.563  H    
     48 H          -1.863     3.930     4.725  H    
@<TRIPOS>BOND
     1    1    2 1
     2    2    6 2
     3    2    3 1
     4    3    4 2
     5    4    5 1
     6    4   13 1
     7    5    6 1
     8    5    7 1
     9    7   12 ar
    10    7    8 ar
    11    8    9 ar
    12    9   10 ar
    13   10   11 ar
    14   11   12 ar
    15   13   14 1
    16   14   15 2
    17   14   16 1
    18   16   17 1
    19   17   18 1
    20   18   23 ar
    21   18   19 ar
    22   19   20 ar
    23   20   21 ar
    24   20   28 1
    25   21   22 ar
    26   22   23 ar
    27   22   24 1
    28   24   25 1
    29   24   26 1
    30   24   27 1
    31   28   32 1
    32   28   29 2
    33   29   30 1
    34   30   31 2
    35   31   32 1
    36    1   33 1
    37    1   34 1
    38    1   35 1
    39    3   36 1
    40    8   37 1
    41    9   38 1
    42   10   39 1
    43   11   40 1
    44   12   41 1
    45   13   42 1
    46   16   43 1
    47   16   44 1
    48   21   45 1
    49   29   46 1
    50   30   47 1
    51   31   48 1
@<TRIPOS>MOLECULE
ZINC00646863
 52 55 0 0 0
SMALL
NO_CHARGES


@<TRIPOS>ATOM
      1 C           3.088     1.277    -1.676  C    
      2 C           3.574     0.103    -2.413  C    
      3 N           2.754    -0.960    -2.656  N    
      4 C           3.155    -2.073    -3.336  C    
      5 C           4.489    -2.099    -3.784  C    
      6 C           5.269    -3.004    -4.487  C    
      7 N           6.493    -2.464    -4.633  N    
      8 N           6.530    -1.291    -4.064  N    
      9 C           5.321    -1.016    -3.531  C    
     10 N           4.862     0.068    -2.856  N    
     11 C           7.687    -0.449    -4.038  C    
     12 C           8.324    -0.379    -2.624  C    
     13 C           9.516     0.511    -2.572  C    
     14 C          10.714     0.142    -3.231  C    
     15 C          11.848     0.974    -3.182  C    
     16 C          11.802     2.186    -2.469  C    
     17 C          10.621     2.564    -1.805  C    
     18 C           9.487     1.732    -1.854  C    
     19 N           2.360    -3.148    -3.558  N    
     20 C           1.047    -3.323    -3.225  C    
     21 C           0.081    -2.290    -3.233  C    
     22 C          -1.259    -2.560    -2.898  C    
     23 C          -1.657    -3.866    -2.552  C    
     24 C          -0.715    -4.917    -2.600  C    
     25 C           0.629    -4.637    -2.925  C    
     26 O          -1.082    -6.196    -2.281  O    
     27 C          -1.510    -6.963    -3.419  C    
     28 O          -2.965    -4.125    -2.247  O    
     29 C          -3.270    -3.935    -0.855  C    
     30 H           3.686     1.417    -0.775  H    
     31 H           2.042     1.154    -1.387  H    
     32 H           3.175     2.166    -2.303  H    
     33 H           4.974    -3.915    -4.840  H    
     34 H           8.428    -0.834    -4.746  H    
     35 H           7.407     0.555    -4.371  H    
     36 H           7.564    -0.035    -1.917  H    
     37 H           8.620    -1.384    -2.311  H    
     38 H          10.770    -0.739    -3.748  H    
     39 H          12.707     0.697    -3.663  H    
     40 H          12.625     2.790    -2.433  H    
     41 H          10.587     3.444    -1.285  H    
     42 H           8.638     2.027    -1.365  H    
     43 H           2.801    -3.923    -3.940  H    
     44 H           0.334    -1.341    -3.507  H    
     45 H          -1.946    -1.804    -2.912  H    
     46 H           1.307    -5.403    -2.933  H    
     47 H          -2.403    -6.528    -3.877  H    
     48 H          -1.760    -7.967    -3.077  H    
     49 H          -0.718    -7.044    -4.168  H    
     50 H          -2.667    -4.588    -0.219  H    
     51 H          -4.320    -4.185    -0.700  H    
     52 H          -3.121    -2.894    -0.555  H    
@<TRIPOS>BOND
     1    1    2 1
     2    2   10 ar
     3    2    3 ar
     4    3    4 ar
     5    4    5 ar
     6    4   19 1
     7    5    9 ar
     8    5    6 1
     9    6    7 2
    10    7    8 1
    11    8    9 1
    12    8   11 1
    13    9   10 ar
    14   11   12 1
    15   12   13 1
    16   13   18 ar
    17   13   14 ar
    18   14   15 ar
    19   15   16 ar
    20   16   17 ar
    21   17   18 ar
    22   19   20 1
    23   20   25 ar
    24   20   21 ar
    25   21   22 ar
    26   22   23 ar
    27   23   24 ar
    28   23   28 1
    29   24   25 ar
    30   24   26 1
    31   26   27 1
    32   28   29 1
    33    1   30 1
    34    1   31 1
    35    1   32 1
    36    6   33 1
    37   11   34 1
    38   11   35 1
    39   12   36 1
    40   12   37 1
    41   14   38 1
    42   15   39 1
    43   16   40 1
    44   17   41 1
    45   18   42 1
    46   19   43 1
    47   21   44 1
    48   22   45 1
    49   25   46 1
    50   27   47 1
    51   27   48 1
    52   27   49 1
    53   29   50 1
    54   29   51 1
    55   29   52 1
@<TRIPOS>MOLECULE
ZINC00650398
 48 49 0 0 0
SMALL
NO_CHARGES


@<TRIPOS>ATOM
      1 C           2.087     0.576    -3.662  C    
      2 C           3.496     0.539    -3.035  C    
      3 O           3.485     0.064    -1.683  O    
      4 C           3.233    -1.195    -1.234  C    
      5 O           2.962    -2.178    -2.128  O    
      6 C           3.288    -1.474     0.130  C    
      7 C           2.384    -2.220     0.793  C    
      8 N           2.562    -2.024     2.107  N    
      9 C           3.571    -1.181     2.253  C    
     10 O           3.984    -0.771     3.333  O    
     11 C           4.083    -0.861     1.050  C    
     12 C           5.215    -0.135     0.896  C    
     13 C           5.999    -0.013    -0.244  C    
     14 C           6.487     1.263    -0.610  C    
     15 C           7.258     1.429    -1.776  C    
     16 C           7.596     0.327    -2.601  C    
     17 C           7.142    -0.954    -2.197  C    
     18 C           6.365    -1.124    -1.037  C    
     19 N           8.330     0.498    -3.739  N    
     20 O           8.611    -0.413    -4.473  O    
     21 O           8.751     1.670    -4.130  O    
     22 C           1.775    -2.556     3.202  C    
     23 C           0.415    -1.814     3.409  C    
     24 C          -0.489    -2.570     4.418  C    
     25 C           0.616    -0.338     3.853  C    
     26 C           1.332    -3.027     0.177  C    
     27 H           1.678    -0.434    -3.732  H    
     28 H           2.130     0.998    -4.669  H    
     29 H           1.422     1.192    -3.047  H    
     30 H           4.163    -0.084    -3.641  H    
     31 H           3.892     1.555    -3.024  H    
     32 H           5.534     0.383     1.682  H    
     33 H           6.250     2.092    -0.054  H    
     34 H           7.565     2.374    -2.016  H    
     35 H           7.371    -1.783    -2.750  H    
     36 H           6.065    -2.069    -0.776  H    
     37 H           1.597    -3.623     3.022  H    
     38 H           2.337    -2.512     4.143  H    
     39 H          -0.119    -1.792     2.453  H    
     40 H          -0.700    -3.581     4.052  H    
     41 H          -1.442    -2.048     4.543  H    
     42 H          -0.004    -2.643     5.395  H    
     43 H           1.163    -0.291     4.796  H    
     44 H          -0.352     0.156     3.986  H    
     45 H           1.171     0.214     3.094  H    
     46 H           0.711    -2.404    -0.471  H    
     47 H           0.674    -3.502     0.905  H    
     48 H           1.784    -3.824    -0.420  H    
@<TRIPOS>BOND
     1    1    2 1
     2    2    3 1
     3    3    4 1
     4    4    5 2
     5    4    6 1
     6    6   11 1
     7    6    7 2
     8    7    8 1
     9    7   26 1
    10    8    9 1
    11    8   22 1
    12    9   10 2
    13    9   11 1
    14   11   12 2
    15   12   13 1
    16   13   18 ar
    17   13   14 ar
    18   14   15 ar
    19   15   16 ar
    20   16   17 ar
    21   16   19 1
    22   17   18 ar
    23   19   20 2
    24   19   21 1
    25   22   23 1
    26   23   24 1
    27   23   25 1
    28    1   27 1
    29    1   28 1
    30    1   29 1
    31    2   30 1
    32    2   31 1
    33   12   32 1
    34   14   33 1
    35   15   34 1
    36   17   35 1
    37   18   36 1
    38   22   37 1
    39   22   38 1
    40   23   39 1
    41   24   40 1
    42   24   41 1
    43   24   42 1
    44   25   43 1
    45   25   44 1
    46   25   45 1
    47   26   46 1
    48   26   47 1
    49   26   48 1
@<TRIPOS>MOLECULE
ZINC00652692
 34 35 0 0 0
SMALL
NO_CHARGES


@<TRIPOS>ATOM
      1 C           3.541     0.259    -7.726  C    
      2 C           4.946     0.182    -7.691  C    
      3 C           5.612    -1.018    -8.051  C    
      4 C           4.836    -2.119    -8.463  C    
      5 C           3.432    -2.039    -8.510  C    
      6 C           2.757    -0.850    -8.127  C    
      7 C           1.366    -0.774    -8.189  C    
      8 O           0.845    -1.216    -9.207  O    
      9 N           0.584    -0.276    -7.220  N    
     10 C          -0.850    -0.114    -7.275  C    
     11 C          -1.079     0.322    -5.924  C    
     12 C           0.073     0.396    -5.261  C    
     13 N           1.008     0.054    -6.063  N    
     14 C           0.294     0.771    -3.879  C    
     15 F          -0.856     1.159    -3.230  F    
     16 F           0.829    -0.289    -3.187  F    
     17 C          -1.329     0.926    -8.331  C    
     18 F          -2.686     1.142    -8.240  F    
     19 F          -0.687     2.136    -8.192  F    
     20 O          -1.515    -1.366    -7.456  O    
     21 O           6.975    -1.220    -8.058  O    
     22 C           7.898    -0.190    -7.661  C    
     23 F           7.773     0.120    -6.319  F    
     24 F           9.168    -0.665    -7.874  F    
     25 H           3.095     1.143    -7.473  H    
     26 H           5.475     1.007    -7.401  H    
     27 H           5.298    -2.994    -8.732  H    
     28 H           2.905    -2.865    -8.808  H    
     29 H          -1.973     0.516    -5.544  H    
     30 H           1.899    -0.026    -5.802  H    
     31 H           1.001     1.602    -3.839  H    
     32 H          -1.124     0.551    -9.336  H    
     33 H          -1.297    -1.645    -8.371  H    
     34 H           7.754     0.714    -8.269  H    
@<TRIPOS>BOND
     1    1    6 ar
     2    1    2 ar
     3    2    3 ar
     4    3    4 ar
     5    3   21 1
     6    4    5 ar
     7    5    6 ar
     8    6    7 1
     9    7    8 2
    10    7    9 1
    11    9   10 1
    12    9   13 1
    13   10   11 1
    14   10   17 1
    15   10   20 1
    16   11   12 2
    17   12   14 1
    18   12   13 1
    19   14   15 1
    20   14   16 1
    21   17   18 1
    22   17   19 1
    23   21   22 1
    24   22   23 1
    25   22   24 1
    26    1   25 1
    27    2   26 1
    28    4   27 1
    29    5   28 1
    30   11   29 1
    31   13   30 1
    32   14   31 1
    33   17   32 1
    34   20   33 1
    35   22   34 1
@<TRIPOS>MOLECULE
ZINC00654977
 57 59 0 0 0
SMALL
NO_CHARGES


@<TRIPOS>ATOM
      1 C          -0.689     9.635     3.479  C    
      2 C          -1.740     8.707     3.008  C    
      3 C          -1.624     8.030     1.772  C    
      4 C          -2.603     7.105     1.373  C    
      5 C          -3.716     6.836     2.201  C    
      6 C          -3.849     7.531     3.424  C    
      7 C          -2.868     8.455     3.823  C    
      8 N          -4.630     5.888     1.837  N    
      9 C          -6.006     6.235     1.540  C    
     10 C          -6.445     5.979     0.163  C    
     11 O          -5.551     5.696    -0.629  O    
     12 N          -7.727     6.042    -0.272  N    
     13 C          -8.828     6.478     0.578  C    
     14 C          -9.779     5.317     0.984  C    
     15 C         -10.859     4.977    -0.075  C    
     16 C         -10.309     4.497    -1.440  C    
     17 C          -9.464     5.561    -2.187  C    
     18 C          -8.006     5.686    -1.662  C    
     19 S          -4.127     4.266     1.894  S    
     20 O          -5.397     3.306     1.900  O    
     21 O          -3.290     3.894     0.592  O    
     22 C          -3.255     3.922     3.365  C    
     23 C          -3.946     3.898     4.594  C    
     24 C          -3.249     3.718     5.802  C    
     25 C          -1.847     3.563     5.797  C    
     26 C          -1.154     3.551     4.566  C    
     27 C          -1.850     3.745     3.359  C    
     28 S          -0.995     3.368     7.304  S    
     29 C          -0.125     4.959     7.285  C    
     30 H          -1.112    10.628     3.632  H    
     31 H           0.137     9.719     2.770  H    
     32 H          -0.282     9.275     4.426  H    
     33 H          -0.825     8.200     1.157  H    
     34 H          -2.496     6.615     0.481  H    
     35 H          -4.641     7.344     4.039  H    
     36 H          -2.975     8.941     4.720  H    
     37 H          -6.636     5.673     2.232  H    
     38 H          -6.172     7.301     1.729  H    
     39 H          -8.485     6.942     1.506  H    
     40 H          -9.390     7.272     0.075  H    
     41 H          -9.193     4.426     1.212  H    
     42 H         -10.306     5.605     1.899  H    
     43 H         -11.499     4.187     0.333  H    
     44 H         -11.496     5.854    -0.235  H    
     45 H          -9.725     3.585    -1.299  H    
     46 H         -11.165     4.240    -2.070  H    
     47 H          -9.410     5.268    -3.244  H    
     48 H          -9.963     6.534    -2.161  H    
     49 H          -7.510     6.428    -2.300  H    
     50 H          -7.539     4.718    -1.872  H    
     51 H          -4.961     4.030     4.616  H    
     52 H          -3.768     3.717     6.683  H    
     53 H          -0.140     3.419     4.549  H    
     54 H          -1.328     3.770     2.479  H    
     55 H           0.521     5.032     6.403  H    
     56 H           0.488     5.035     8.184  H    
     57 H          -0.842     5.783     7.282  H    
@<TRIPOS>BOND
     1    1    2 1
     2    2    7 ar
     3    2    3 ar
     4    3    4 ar
     5    4    5 ar
     6    5    6 ar
     7    5    8 1
     8    6    7 ar
     9    8    9 1
    10    8   19 1
    11    9   10 1
    12   10   11 2
    13   10   12 1
    14   12   18 1
    15   12   13 1
    16   13   14 1
    17   14   15 1
    18   15   16 1
    19   16   17 1
    20   17   18 1
    21   19   20 2
    22   19   21 2
    23   19   22 1
    24   22   27 ar
    25   22   23 ar
    26   23   24 ar
    27   24   25 ar
    28   25   26 ar
    29   25   28 1
    30   26   27 ar
    31   28   29 1
    32    1   30 1
    33    1   31 1
    34    1   32 1
    35    3   33 1
    36    4   34 1
    37    6   35 1
    38    7   36 1
    39    9   37 1
    40    9   38 1
    41   13   39 1
    42   13   40 1
    43   14   41 1
    44   14   42 1
    45   15   43 1
    46   15   44 1
    47   16   45 1
    48   16   46 1
    49   17   47 1
    50   17   48 1
    51   18   49 1
    52   18   50 1
    53   23   51 1
    54   24   52 1
    55   26   53 1
    56   27   54 1
    57   29   55 1
    58   29   56 1
    59   29   57 1
@<TRIPOS>MOLECULE
ZINC00663658
 54 56 0 0 0
SMALL
NO_CHARGES


@<TRIPOS>ATOM
      1 C          -3.749     5.583     2.356  C    
      2 C          -4.414     4.220     2.669  C    
      3 C          -3.694     3.086     2.028  C    
      4 C          -2.669     2.415     2.733  C    
      5 C          -1.977     1.349     2.132  C    
      6 C          -2.294     0.932     0.816  C    
      7 C          -3.312     1.622     0.108  C    
      8 C          -4.010     2.687     0.709  C    
      9 C          -1.547    -0.220     0.186  C    
     10 C          -2.513    -1.301    -0.121  C    
     11 C          -2.571    -1.774    -1.389  C    
     12 O          -2.022    -1.077    -2.404  O    
     13 C          -0.993    -0.226    -2.178  C    
     14 C          -0.740     0.269    -0.943  C    
     15 C           0.234     1.234    -0.693  C    
     16 O           0.139     2.440    -1.305  O    
     17 O           1.204     0.994     0.231  O    
     18 C           2.223     1.908     0.646  C    
     19 C          -0.240     0.107    -3.367  C    
     20 S          -1.230     1.274    -4.339  S    
     21 C          -0.207     1.652    -5.715  C    
     22 C          -0.591     2.602    -6.702  C    
     23 C           0.317     2.905    -7.741  C    
     24 C           1.506     2.163    -7.884  C    
     25 C           1.814     1.170    -6.931  C    
     26 N           0.950     0.962    -5.901  N    
     27 C           3.061     0.375    -7.000  C    
     28 C          -1.633     3.379    -6.533  C    
     29 N          -2.520     4.087    -6.362  N    
     30 N          -3.271    -2.792    -1.759  N    
     31 C          -2.951    -2.013     0.863  C    
     32 N          -3.326    -2.643     1.741  N    
     33 H          -2.720     5.595     2.719  H    
     34 H          -4.295     6.395     2.841  H    
     35 H          -3.746     5.764     1.281  H    
     36 H          -4.439     4.079     3.756  H    
     37 H          -5.455     4.241     2.329  H    
     38 H          -2.423     2.702     3.679  H    
     39 H          -1.239     0.885     2.655  H    
     40 H          -3.547     1.351    -0.846  H    
     41 H          -4.741     3.168     0.186  H    
     42 H          -0.812    -0.633     0.892  H    
     43 H           2.847     2.198    -0.200  H    
     44 H           2.850     1.429     1.397  H    
     45 H           1.769     2.797     1.082  H    
     46 H           0.725     0.551    -3.124  H    
     47 H          -0.047    -0.800    -3.945  H    
     48 H           0.093     3.618    -8.433  H    
     49 H           2.137     2.351    -8.656  H    
     50 H           3.106    -0.177    -7.940  H    
     51 H           3.116    -0.342    -6.178  H    
     52 H           3.928     1.033    -6.938  H    
     53 H          -3.297    -3.034    -2.648  H    
     54 H          -3.746    -3.283    -1.142  H    
@<TRIPOS>BOND
     1    1    2 1
     2    2    3 1
     3    3    8 ar
     4    3    4 ar
     5    4    5 ar
     6    5    6 ar
     7    6    7 ar
     8    6    9 1
     9    7    8 ar
    10    9   14 1
    11    9   10 1
    12   10   11 2
    13   10   31 1
    14   11   12 1
    15   11   30 1
    16   12   13 1
    17   13   14 2
    18   13   19 1
    19   14   15 1
    20   15   16 2
    21   15   17 1
    22   17   18 1
    23   19   20 1
    24   20   21 1
    25   21   26 ar
    26   21   22 ar
    27   22   23 ar
    28   22   28 1
    29   23   24 ar
    30   24   25 ar
    31   25   26 ar
    32   25   27 1
    33   28   29 3
    34   31   32 3
    35    1   33 1
    36    1   34 1
    37    1   35 1
    38    2   36 1
    39    2   37 1
    40    4   38 1
    41    5   39 1
    42    7   40 1
    43    8   41 1
    44    9   42 1
    45   18   43 1
    46   18   44 1
    47   18   45 1
    48   19   46 1
    49   19   47 1
    50   23   48 1
    51   24   49 1
    52   27   50 1
    53   27   51 1
    54   27   52 1
    55   30   53 1
    56   30   54 1
@<TRIPOS>MOLECULE
ZINC00670378
 46 47 0 0 0
SMALL
NO_CHARGES


@<TRIPOS>ATOM
      1 C           7.123    -8.870    -3.902  C    
      2 C           5.882    -8.468    -3.186  C    
      3 C           5.992    -7.914    -1.890  C    
      4 C           4.851    -7.532    -1.166  C    
      5 C           3.582    -7.666    -1.754  C    
      6 C           3.427    -8.212    -3.050  C    
      7 C           4.590    -8.620    -3.766  C    
      8 Cl          4.454    -9.296    -5.325  Cl   
      9 C           2.032    -8.311    -3.565  C    
     10 O           4.973    -6.968     0.075  O    
     11 C           5.027    -7.931     1.151  C    
     12 C           5.137    -7.293     2.448  C    
     13 O           5.187    -6.071     2.519  O    
     14 N           5.261    -8.071     3.517  N    
     15 C           5.389    -7.729     4.836  C    
     16 C           4.854    -6.555     5.420  C    
     17 C           5.022    -6.294     6.792  C    
     18 C           5.720    -7.202     7.618  C    
     19 C           6.236    -8.386     7.042  C    
     20 C           6.062    -8.648     5.671  C    
     21 N           5.892    -6.939     8.961  N    
     22 C           6.771    -5.841     9.311  C    
     23 C           5.254    -7.673     9.895  C    
     24 O           4.487    -8.574     9.563  O    
     25 C           5.394    -7.468    11.330  C    
     26 H           7.092    -9.938    -4.121  H    
     27 H           8.027    -8.673    -3.323  H    
     28 H           7.203    -8.316    -4.840  H    
     29 H           6.910    -7.790    -1.454  H    
     30 H           2.762    -7.366    -1.220  H    
     31 H           1.445    -8.954    -2.906  H    
     32 H           1.964    -8.720    -4.571  H    
     33 H           1.577    -7.318    -3.582  H    
     34 H           4.119    -8.543     1.149  H    
     35 H           5.894    -8.586     1.016  H    
     36 H           5.334    -9.020     3.328  H    
     37 H           4.314    -5.892     4.861  H    
     38 H           4.622    -5.440     7.192  H    
     39 H           6.745    -9.059     7.621  H    
     40 H           6.447    -9.513     5.281  H    
     41 H           7.221    -5.355     8.440  H    
     42 H           7.592    -6.203     9.934  H    
     43 H           6.217    -5.077     9.860  H    
     44 H           6.434    -7.612    11.627  H    
     45 H           4.780    -8.164    11.908  H    
     46 H           5.084    -6.455    11.593  H    
@<TRIPOS>BOND
     1    1    2 1
     2    2    7 ar
     3    2    3 ar
     4    3    4 ar
     5    4    5 ar
     6    4   10 1
     7    5    6 ar
     8    6    7 ar
     9    6    9 1
    10    7    8 1
    11   10   11 1
    12   11   12 1
    13   12   13 2
    14   12   14 1
    15   14   15 1
    16   15   20 ar
    17   15   16 ar
    18   16   17 ar
    19   17   18 ar
    20   18   19 ar
    21   18   21 1
    22   19   20 ar
    23   21   22 1
    24   21   23 1
    25   23   24 2
    26   23   25 1
    27    1   26 1
    28    1   27 1
    29    1   28 1
    30    3   29 1
    31    5   30 1
    32    9   31 1
    33    9   32 1
    34    9   33 1
    35   11   34 1
    36   11   35 1
    37   14   36 1
    38   16   37 1
    39   17   38 1
    40   19   39 1
    41   20   40 1
    42   22   41 1
    43   22   42 1
    44   22   43 1
    45   25   44 1
    46   25   45 1
    47   25   46 1
@<TRIPOS>MOLECULE
ZINC00683239
 48 50 0 0 0
SMALL
NO_CHARGES


@<TRIPOS>ATOM
      1 C           3.647    -5.565    -2.647  C    
      2 C           4.358    -4.994    -3.824  C    
      3 C           3.951    -5.391    -5.122  C    
      4 C           4.566    -4.867    -6.269  C    
      5 C           5.607    -3.939    -6.141  C    
      6 C           6.035    -3.541    -4.864  C    
      7 C           5.422    -4.053    -3.697  C    
      8 S           5.991    -3.467    -2.145  S    
      9 O           6.383    -4.719    -1.249  O    
     10 O           7.261    -2.522    -2.309  O    
     11 N           4.766    -2.581    -1.395  N    
     12 C           4.783    -2.047    -0.139  C    
     13 C           5.867    -2.154     0.761  C    
     14 C           5.793    -1.577     2.038  C    
     15 C           4.639    -0.878     2.430  C    
     16 C           3.527    -0.733     1.558  C    
     17 C           3.633    -1.339     0.274  C    
     18 C           2.366    -0.032     1.938  C    
     19 O           1.427     0.031     1.157  O    
     20 N           2.284     0.612     3.103  N    
     21 C           1.269     1.341     3.666  C    
     22 C          -0.108     1.234     3.341  C    
     23 C          -1.067     2.029     3.996  C    
     24 C          -0.677     2.926     5.007  C    
     25 C           0.686     3.033     5.348  C    
     26 C           1.643     2.239     4.691  C    
     27 O          -1.603     3.731     5.612  O    
     28 C          -2.171     3.153     6.798  C    
     29 H           4.344    -6.134    -2.034  H    
     30 H           2.837    -6.238    -2.931  H    
     31 H           3.212    -4.764    -2.049  H    
     32 H           3.193    -6.066    -5.246  H    
     33 H           4.255    -5.159    -7.198  H    
     34 H           6.057    -3.556    -6.974  H    
     35 H           6.794    -2.863    -4.801  H    
     36 H           3.967    -2.426    -1.925  H    
     37 H           6.720    -2.648     0.498  H    
     38 H           6.581    -1.666     2.685  H    
     39 H           4.631    -0.484     3.372  H    
     40 H           2.854    -1.265    -0.387  H    
     41 H           3.097     0.609     3.630  H    
     42 H          -0.434     0.569     2.643  H    
     43 H          -2.054     1.945     3.740  H    
     44 H           0.982     3.689     6.071  H    
     45 H           2.627     2.334     4.961  H    
     46 H          -2.705     2.226     6.571  H    
     47 H          -2.884     3.865     7.211  H    
     48 H          -1.407     2.957     7.554  H    
@<TRIPOS>BOND
     1    1    2 1
     2    2    7 ar
     3    2    3 ar
     4    3    4 ar
     5    4    5 ar
     6    5    6 ar
     7    6    7 ar
     8    7    8 1
     9    8    9 2
    10    8   10 2
    11    8   11 1
    12   11   12 1
    13   12   17 ar
    14   12   13 ar
    15   13   14 ar
    16   14   15 ar
    17   15   16 ar
    18   16   17 ar
    19   16   18 1
    20   18   19 2
    21   18   20 1
    22   20   21 1
    23   21   26 ar
    24   21   22 ar
    25   22   23 ar
    26   23   24 ar
    27   24   25 ar
    28   24   27 1
    29   25   26 ar
    30   27   28 1
    31    1   29 1
    32    1   30 1
    33    1   31 1
    34    3   32 1
    35    4   33 1
    36    5   34 1
    37    6   35 1
    38   11   36 1
    39   13   37 1
    40   14   38 1
    41   15   39 1
    42   17   40 1
    43   20   41 1
    44   22   42 1
    45   23   43 1
    46   25   44 1
    47   26   45 1
    48   28   46 1
    49   28   47 1
    50   28   48 1
@<TRIPOS>MOLECULE
ZINC00724355
 45 46 0 0 0
SMALL
NO_CHARGES


@<TRIPOS>ATOM
      1 C           6.666   -11.881    -4.149  C    
      2 C           6.592   -11.781    -2.602  C    
      3 C           8.009   -11.554    -2.005  C    
      4 C           5.567   -10.681    -2.171  C    
      5 C           5.334   -10.593    -0.738  C    
      6 O           4.922   -11.596    -0.161  O    
      7 N           5.488    -9.428    -0.122  N    
      8 C           5.279    -9.105     1.158  C    
      9 S           5.532   -10.204     2.442  S    
     10 N           5.255    -7.799     1.407  N    
     11 C           4.492    -7.109     2.299  C    
     12 C           4.709    -5.722     2.368  C    
     13 C           3.937    -4.911     3.219  C    
     14 C           2.925    -5.454     4.049  C    
     15 C           2.687    -6.854     3.958  C    
     16 C           3.459    -7.658     3.091  C    
     17 Cl          1.372    -7.623     4.709  Cl   
     18 N           2.223    -4.623     4.891  N    
     19 C           1.741    -3.318     4.474  C    
     20 C           2.330    -2.218     5.391  C    
     21 O           2.059    -2.523     6.773  O    
     22 C           2.553    -3.813     7.186  C    
     23 C           2.002    -4.950     6.284  C    
     24 H           7.052   -10.954    -4.580  H    
     25 H           5.674   -12.074    -4.568  H    
     26 H           7.323   -12.705    -4.445  H    
     27 H           6.231   -12.747    -2.238  H    
     28 H           8.679   -12.362    -2.313  H    
     29 H           7.974   -11.551    -0.914  H    
     30 H           8.425   -10.604    -2.345  H    
     31 H           5.903    -9.717    -2.563  H    
     32 H           4.601   -10.896    -2.638  H    
     33 H           5.707    -8.682    -0.705  H    
     34 H           5.797    -7.254     0.816  H    
     35 H           5.440    -5.282     1.803  H    
     36 H           4.169    -3.918     3.266  H    
     37 H           3.230    -8.649     3.001  H    
     38 H           1.963    -3.081     3.431  H    
     39 H           0.652    -3.307     4.571  H    
     40 H           3.405    -2.125     5.227  H    
     41 H           1.869    -1.257     5.154  H    
     42 H           3.646    -3.815     7.163  H    
     43 H           2.239    -3.986     8.216  H    
     44 H           0.931    -5.074     6.460  H    
     45 H           2.501    -5.874     6.588  H    
@<TRIPOS>BOND
     1    1    2 1
     2    2    3 1
     3    2    4 1
     4    4    5 1
     5    5    6 2
     6    5    7 1
     7    7    8 1
     8    8    9 2
     9    8   10 1
    10   10   11 1
    11   11   16 ar
    12   11   12 ar
    13   12   13 ar
    14   13   14 ar
    15   14   15 ar
    16   14   18 1
    17   15   16 ar
    18   15   17 1
    19   18   23 1
    20   18   19 1
    21   19   20 1
    22   20   21 1
    23   21   22 1
    24   22   23 1
    25    1   24 1
    26    1   25 1
    27    1   26 1
    28    2   27 1
    29    3   28 1
    30    3   29 1
    31    3   30 1
    32    4   31 1
    33    4   32 1
    34    7   33 1
    35   10   34 1
    36   12   35 1
    37   13   36 1
    38   16   37 1
    39   19   38 1
    40   19   39 1
    41   20   40 1
    42   20   41 1
    43   22   42 1
    44   22   43 1
    45   23   44 1
    46   23   45 1
@<TRIPOS>MOLECULE
ZINC00738206
 38 39 0 0 0
SMALL
NO_CHARGES


@<TRIPOS>ATOM
      1 C          -0.847    -0.092    -6.187  C    
      2 C          -2.024     0.605    -5.863  C    
      3 C          -2.148     1.217    -4.604  C    
      4 C          -1.099     1.128    -3.669  C    
      5 C           0.092     0.425    -3.970  C    
      6 C           0.204    -0.173    -5.252  C    
      7 N           1.062     0.400    -2.993  N    
      8 C           2.199    -0.283    -2.880  C    
      9 O           2.559    -1.097    -3.720  O    
     10 C           3.011    -0.057    -1.694  C    
     11 N           4.203    -0.855    -1.656  N    
     12 C           5.115    -0.861    -0.697  C    
     13 O           5.004    -0.112     0.265  O    
     14 N           6.145    -1.675    -0.870  N    
     15 C           7.229    -1.918    -0.073  C    
     16 C           7.309    -1.645     1.314  C    
     17 C           8.476    -1.942     2.042  C    
     18 C           9.597    -2.536     1.416  C    
     19 C           9.507    -2.828     0.034  C    
     20 C           8.340    -2.528    -0.693  C    
     21 C          10.810    -2.843     2.224  C    
     22 F          10.489    -3.713     3.238  F    
     23 F          11.838    -3.418     1.514  F    
     24 F          11.306    -1.689     2.782  F    
     25 F          -1.264     1.714    -2.512  F    
     26 H          -0.755    -0.533    -7.105  H    
     27 H          -2.784     0.672    -6.543  H    
     28 H          -3.005     1.726    -4.374  H    
     29 H           1.051    -0.663    -5.541  H    
     30 H           0.875     0.971    -2.231  H    
     31 H           3.293     0.999    -1.662  H    
     32 H           2.411    -0.281    -0.807  H    
     33 H           4.353    -1.456    -2.404  H    
     34 H           6.152    -2.145    -1.720  H    
     35 H           6.517    -1.250     1.821  H    
     36 H           8.501    -1.728     3.044  H    
     37 H          10.291    -3.265    -0.460  H    
     38 H           8.311    -2.756    -1.692  H    
@<TRIPOS>BOND
     1    1    6 ar
     2    1    2 ar
     3    2    3 ar
     4    3    4 ar
     5    4    5 ar
     6    4   25 1
     7    5    6 ar
     8    5    7 1
     9    7    8 1
    10    8    9 2
    11    8   10 1
    12   10   11 1
    13   11   12 1
    14   12   13 2
    15   12   14 1
    16   14   15 1
    17   15   20 ar
    18   15   16 ar
    19   16   17 ar
    20   17   18 ar
    21   18   19 ar
    22   18   21 1
    23   19   20 ar
    24   21   22 1
    25   21   23 1
    26   21   24 1
    27    1   26 1
    28    2   27 1
    29    3   28 1
    30    6   29 1
    31    7   30 1
    32   10   31 1
    33   10   32 1
    34   11   33 1
    35   14   34 1
    36   16   35 1
    37   17   36 1
    38   19   37 1
    39   20   38 1
@<TRIPOS>MOLECULE
ZINC00739340
 59 61 0 0 0
SMALL
NO_CHARGES


@<TRIPOS>ATOM
      1 C           6.592    -6.223    -0.307  C    
      2 C           6.065    -5.927    -1.666  C    
      3 C           5.569    -6.986    -2.464  C    
      4 C           5.045    -6.743    -3.745  C    
      5 C           5.002    -5.435    -4.250  C    
      6 C           5.482    -4.368    -3.473  C    
      7 C           6.020    -4.599    -2.184  C    
      8 C           6.497    -3.503    -1.477  C    
      9 O           7.719    -3.455    -1.412  O    
     10 N           5.730    -2.541    -0.932  N    
     11 C           4.275    -2.603    -0.883  C    
     12 C           3.646    -1.338    -1.541  C    
     13 N           4.235    -0.135    -0.974  N    
     14 C           5.690    -0.086    -1.028  C    
     15 C           6.298    -1.337    -0.342  C    
     16 C           3.476     0.876    -0.420  C    
     17 C           2.186     1.202    -0.915  C    
     18 C           1.421     2.252    -0.371  C    
     19 C           1.913     3.029     0.705  C    
     20 C           3.178     2.697     1.226  C    
     21 C           3.945     1.652     0.675  C    
     22 N           1.264     4.072     1.314  N    
     23 C           0.164     4.741     0.992  C    
     24 O          -0.509     4.486     0.002  O    
     25 N          -0.167     5.730     1.811  N    
     26 C          -1.294     6.629     1.761  C    
     27 C          -1.143     7.584     2.990  C    
     28 C          -1.284     7.485     0.455  C    
     29 C          -2.633     5.847     1.906  C    
     30 H           7.645    -5.939    -0.253  H    
     31 H           6.515    -7.282    -0.053  H    
     32 H           6.028    -5.655     0.437  H    
     33 H           5.583    -7.947    -2.118  H    
     34 H           4.698    -7.522    -4.310  H    
     35 H           4.619    -5.260    -5.182  H    
     36 H           5.439    -3.417    -3.862  H    
     37 H           3.845    -3.484    -1.367  H    
     38 H           3.961    -2.645     0.164  H    
     39 H           3.834    -1.359    -2.620  H    
     40 H           2.564    -1.402    -1.386  H    
     41 H           5.993    -0.083    -2.080  H    
     42 H           6.123     0.815    -0.581  H    
     43 H           6.060    -1.314     0.727  H    
     44 H           7.386    -1.274    -0.428  H    
     45 H           1.808     0.704    -1.725  H    
     46 H           0.505     2.434    -0.778  H    
     47 H           3.558     3.219     2.025  H    
     48 H           4.840     1.430     1.122  H    
     49 H           1.707     4.398     2.116  H    
     50 H           0.432     5.857     2.562  H    
     51 H          -1.142     7.015     3.925  H    
     52 H          -1.965     8.304     3.032  H    
     53 H          -0.204     8.143     2.934  H    
     54 H          -0.333     8.013     0.347  H    
     55 H          -2.089     8.227     0.468  H    
     56 H          -1.425     6.856    -0.427  H    
     57 H          -2.803     5.194     1.047  H    
     58 H          -3.482     6.532     1.978  H    
     59 H          -2.619     5.227     2.807  H    
@<TRIPOS>BOND
     1    1    2 1
     2    2    7 ar
     3    2    3 ar
     4    3    4 ar
     5    4    5 ar
     6    5    6 ar
     7    6    7 ar
     8    7    8 1
     9    8    9 2
    10    8   10 1
    11   10   15 1
    12   10   11 1
    13   11   12 1
    14   12   13 1
    15   13   14 1
    16   13   16 1
    17   14   15 1
    18   16   21 ar
    19   16   17 ar
    20   17   18 ar
    21   18   19 ar
    22   19   20 ar
    23   19   22 1
    24   20   21 ar
    25   22   23 1
    26   23   24 2
    27   23   25 1
    28   25   26 1
    29   26   27 1
    30   26   28 1
    31   26   29 1
    32    1   30 1
    33    1   31 1
    34    1   32 1
    35    3   33 1
    36    4   34 1
    37    5   35 1
    38    6   36 1
    39   11   37 1
    40   11   38 1
    41   12   39 1
    42   12   40 1
    43   14   41 1
    44   14   42 1
    45   15   43 1
    46   15   44 1
    47   17   45 1
    48   18   46 1
    49   20   47 1
    50   21   48 1
    51   22   49 1
    52   25   50 1
    53   27   51 1
    54   27   52 1
    55   27   53 1
    56   28   54 1
    57   28   55 1
    58   28   56 1
    59   29   57 1
    60   29   58 1
    61   29   59 1
@<TRIPOS>MOLECULE
ZINC00778701
 48 50 0 0 0
SMALL
NO_CHARGES


@<TRIPOS>ATOM
      1 C           8.250   -11.152    -4.002  C    
      2 O           7.723   -11.922    -2.904  O    
      3 C           7.388   -11.152    -1.825  C    
      4 C           6.051   -10.752    -1.640  C    
      5 C           5.689    -9.970    -0.524  C    
      6 C           6.661    -9.574     0.424  C    
      7 C           7.997   -10.008     0.245  C    
      8 C           8.357   -10.799    -0.865  C    
      9 C           6.276    -8.727     1.584  C    
     10 N           5.742    -7.473     1.147  N    
     11 C           5.393    -6.467     1.934  C    
     12 O           5.589    -6.512     3.140  O    
     13 C           4.800    -5.264     1.363  C    
     14 C           5.731    -4.026     1.459  C    
     15 C           4.759    -2.853     1.655  C    
     16 C           3.596    -3.487     2.437  C    
     17 N           3.595    -4.843     2.012  N    
     18 S           2.240    -5.832     2.229  S    
     19 O           0.949    -5.073     1.686  O    
     20 O           2.357    -7.107     1.283  O    
     21 C           2.018    -6.303     3.890  C    
     22 C           2.378    -7.593     4.339  C    
     23 C           2.202    -7.950     5.689  C    
     24 C           1.671    -7.019     6.601  C    
     25 C           1.315    -5.730     6.162  C    
     26 C           1.485    -5.374     4.810  C    
     27 H           7.531   -10.399    -4.352  H    
     28 H           8.455   -11.838    -4.827  H    
     29 H           9.193   -10.660    -3.723  H    
     30 H           5.334   -11.029    -2.314  H    
     31 H           4.710    -9.688    -0.411  H    
     32 H           8.724    -9.752     0.919  H    
     33 H           9.327   -11.107    -0.979  H    
     34 H           5.519    -9.255     2.175  H    
     35 H           7.138    -8.539     2.232  H    
     36 H           5.604    -7.363     0.192  H    
     37 H           4.559    -5.424     0.304  H    
     38 H           6.403    -4.084     2.325  H    
     39 H           6.335    -3.900     0.553  H    
     40 H           5.218    -2.029     2.206  H    
     41 H           4.405    -2.489     0.685  H    
     42 H           3.784    -3.442     3.510  H    
     43 H           2.657    -2.980     2.211  H    
     44 H           2.768    -8.280     3.692  H    
     45 H           2.455    -8.888     6.010  H    
     46 H           1.546    -7.277     7.580  H    
     47 H           0.930    -5.054     6.827  H    
     48 H           1.222    -4.433     4.500  H    
@<TRIPOS>BOND
     1    1    2 1
     2    2    3 1
     3    3    8 ar
     4    3    4 ar
     5    4    5 ar
     6    5    6 ar
     7    6    7 ar
     8    6    9 1
     9    7    8 ar
    10    9   10 1
    11   10   11 1
    12   11   12 2
    13   11   13 1
    14   13   17 1
    15   13   14 1
    16   14   15 1
    17   15   16 1
    18   16   17 1
    19   17   18 1
    20   18   19 2
    21   18   20 2
    22   18   21 1
    23   21   26 ar
    24   21   22 ar
    25   22   23 ar
    26   23   24 ar
    27   24   25 ar
    28   25   26 ar
    29    1   27 1
    30    1   28 1
    31    1   29 1
    32    4   30 1
    33    5   31 1
    34    7   32 1
    35    8   33 1
    36    9   34 1
    37    9   35 1
    38   10   36 1
    39   13   37 1
    40   14   38 1
    41   14   39 1
    42   15   40 1
    43   15   41 1
    44   16   42 1
    45   16   43 1
    46   22   44 1
    47   23   45 1
    48   24   46 1
    49   25   47 1
    50   26   48 1
@<TRIPOS>MOLECULE
ZINC00783815
 44 46 0 0 0
SMALL
NO_CHARGES


@<TRIPOS>ATOM
      1 C           6.246    -0.711    -3.759  C    
      2 C           5.811    -1.880    -4.406  C    
      3 C           4.575    -2.462    -4.055  C    
      4 C           3.772    -1.897    -3.037  C    
      5 C           4.220    -0.712    -2.405  C    
      6 C           5.450    -0.126    -2.759  C    
      7 C           2.546    -2.477    -2.721  C    
      8 C           2.048    -2.700    -1.492  C    
      9 C           2.717    -2.589    -0.310  C    
     10 O           3.861    -3.025    -0.240  O    
     11 C           2.025    -2.300     0.946  C    
     12 C           2.694    -1.233     1.873  C    
     13 C           2.979     0.050     1.217  C    
     14 C           2.089     0.955     0.607  C    
     15 C           2.604     2.144     0.051  C    
     16 C           3.986     2.419     0.113  C    
     17 C           4.867     1.508     0.733  C    
     18 C           4.347     0.319     1.289  C    
     19 N           4.958    -0.694     1.955  N    
     20 C           4.033    -1.573     2.322  C    
     21 O           4.254    -2.592     2.967  O    
     22 C           6.376    -0.787     2.240  C    
     23 C           7.205    -1.118     1.098  C    
     24 O           6.737    -1.270    -0.024  O    
     25 N           8.501    -1.279     1.247  N    
     26 O           1.872    -0.998     3.016  O    
     27 H           7.142    -0.287    -4.017  H    
     28 H           6.396    -2.314    -5.124  H    
     29 H           4.279    -3.315    -4.538  H    
     30 H           3.645    -0.253    -1.697  H    
     31 H           5.764     0.727    -2.288  H    
     32 H           1.991    -2.783    -3.490  H    
     33 H           1.128    -3.079    -1.446  H    
     34 H           1.005    -1.961     0.743  H    
     35 H           1.942    -3.236     1.509  H    
     36 H           1.089     0.753     0.566  H    
     37 H           1.969     2.810    -0.395  H    
     38 H           4.350     3.289    -0.281  H    
     39 H           5.866     1.715     0.788  H    
     40 H           6.713     0.165     2.658  H    
     41 H           6.560    -1.549     3.003  H    
     42 H           9.053    -1.509     0.486  H    
     43 H           8.906    -1.162     2.123  H    
     44 H           1.017    -0.685     2.651  H    
@<TRIPOS>BOND
     1    1    6 ar
     2    1    2 ar
     3    2    3 ar
     4    3    4 ar
     5    4    5 ar
     6    4    7 1
     7    5    6 ar
     8    7    8 2
     9    8    9 1
    10    9   10 2
    11    9   11 1
    12   11   12 1
    13   12   20 1
    14   12   13 1
    15   12   26 1
    16   13   18 ar
    17   13   14 ar
    18   14   15 ar
    19   15   16 ar
    20   16   17 ar
    21   17   18 ar
    22   18   19 1
    23   19   20 1
    24   19   22 1
    25   20   21 2
    26   22   23 1
    27   23   24 2
    28   23   25 1
    29    1   27 1
    30    2   28 1
    31    3   29 1
    32    5   30 1
    33    6   31 1
    34    7   32 1
    35    8   33 1
    36   11   34 1
    37   11   35 1
    38   14   36 1
    39   15   37 1
    40   16   38 1
    41   17   39 1
    42   22   40 1
    43   22   41 1
    44   25   42 1
    45   25   43 1
    46   26   44 1
@<TRIPOS>MOLECULE
ZINC00797225
 41 43 0 0 0
SMALL
NO_CHARGES


@<TRIPOS>ATOM
      1 C           0.822     9.628     1.548  C    
      2 C           0.894    10.733     2.415  C    
      3 C           1.205    10.557     3.781  C    
      4 C           1.515     9.257     4.244  C    
      5 C           1.465     8.142     3.375  C    
      6 C           1.084     8.336     2.035  C    
      7 O           1.715     6.861     3.779  O    
      8 C           2.541     6.355     4.739  C    
      9 O           3.459     7.165     5.320  O    
     10 C           2.552     4.959     5.000  C    
     11 C           1.449     4.149     4.628  C    
     12 C           1.440     2.768     4.900  C    
     13 C           2.543     2.168     5.539  C    
     14 C           3.652     2.958     5.907  C    
     15 C           3.652     4.341     5.648  C    
     16 Cl          2.536     0.506     5.860  Cl   
     17 N           1.205    11.672     4.572  N    
     18 C           0.842    11.793     5.848  C    
     19 O           0.362    10.826     6.428  O    
     20 C           0.867    13.039     6.498  C    
     21 C           1.569    14.153     5.966  C    
     22 C           1.572    15.403     6.617  C    
     23 C           0.877    15.600     7.833  C    
     24 C           0.191    14.486     8.376  C    
     25 C           0.190    13.236     7.729  C    
     26 N           0.867    16.819     8.450  N    
     27 O           0.273    17.017     9.476  O    
     28 O           1.490    17.859     7.964  O    
     29 H           0.578     9.766     0.565  H    
     30 H           0.680    11.666     2.049  H    
     31 H           1.770     9.116     5.223  H    
     32 H           1.028     7.537     1.399  H    
     33 H           0.629     4.561     4.173  H    
     34 H           0.626     2.207     4.634  H    
     35 H           4.462     2.532     6.364  H    
     36 H           4.472     4.888     5.929  H    
     37 H           1.403    12.500     4.107  H    
     38 H           2.097    14.072     5.094  H    
     39 H           2.094    16.174     6.192  H    
     40 H          -0.322    14.578     9.254  H    
     41 H          -0.332    12.471     8.168  H    
@<TRIPOS>BOND
     1    1    6 ar
     2    1    2 ar
     3    2    3 ar
     4    3    4 ar
     5    3   17 1
     6    4    5 ar
     7    5    6 ar
     8    5    7 1
     9    7    8 1
    10    8    9 2
    11    8   10 1
    12   10   15 ar
    13   10   11 ar
    14   11   12 ar
    15   12   13 ar
    16   13   14 ar
    17   13   16 1
    18   14   15 ar
    19   17   18 1
    20   18   19 2
    21   18   20 1
    22   20   25 ar
    23   20   21 ar
    24   21   22 ar
    25   22   23 ar
    26   23   24 ar
    27   23   26 1
    28   24   25 ar
    29   26   27 2
    30   26   28 1
    31    1   29 1
    32    2   30 1
    33    4   31 1
    34    6   32 1
    35   11   33 1
    36   12   34 1
    37   14   35 1
    38   15   36 1
    39   17   37 1
    40   21   38 1
    41   22   39 1
    42   24   40 1
    43   25   41 1
@<TRIPOS>MOLECULE
ZINC00807443
 37 38 0 0 0
SMALL
NO_CHARGES


@<TRIPOS>ATOM
      1 C           3.841   -11.793    -0.444  C    
      2 C           4.948   -10.931    -1.084  C    
      3 C           4.970    -9.562    -0.513  C    
      4 C           5.642    -9.286     0.699  C    
      5 C           5.638    -7.991     1.253  C    
      6 C           4.955    -6.927     0.617  C    
      7 C           4.292    -7.207    -0.598  C    
      8 C           4.300    -8.499    -1.154  C    
      9 N           4.898    -5.629     1.044  N    
     10 C           5.228    -5.068     2.198  C    
     11 O           5.648    -5.706     3.155  O    
     12 C           5.060    -3.631     2.323  C    
     13 O           5.411    -3.090     3.609  O    
     14 C           4.767    -3.257     4.798  C    
     15 O           3.639    -4.003     4.843  O    
     16 C           5.269    -2.675     5.975  C    
     17 C           6.452    -1.900     5.999  C    
     18 C           6.909    -1.356     7.214  C    
     19 C           6.189    -1.583     8.401  C    
     20 C           5.019    -2.357     8.344  C    
     21 N           4.608    -2.868     7.152  N    
     22 H           3.988   -11.875     0.637  H    
     23 H           3.874   -12.793    -0.879  H    
     24 H           2.857   -11.357    -0.642  H    
     25 H           5.916   -11.413    -0.936  H    
     26 H           4.770   -10.893    -2.160  H    
     27 H           6.146   -10.028     1.189  H    
     28 H           6.155    -7.843     2.115  H    
     29 H           3.784    -6.468    -1.090  H    
     30 H           3.798    -8.662    -2.031  H    
     31 H           4.523    -5.015     0.390  H    
     32 H           5.711    -3.151     1.590  H    
     33 H           4.030    -3.353     2.087  H    
     34 H           6.993    -1.727     5.148  H    
     35 H           7.767    -0.799     7.241  H    
     36 H           6.515    -1.196     9.290  H    
     37 H           4.483    -2.543     9.191  H    
@<TRIPOS>BOND
     1    1    2 1
     2    2    3 1
     3    3    8 ar
     4    3    4 ar
     5    4    5 ar
     6    5    6 ar
     7    6    7 ar
     8    6    9 1
     9    7    8 ar
    10    9   10 1
    11   10   11 2
    12   10   12 1
    13   12   13 1
    14   13   14 1
    15   14   15 2
    16   14   16 1
    17   16   21 ar
    18   16   17 ar
    19   17   18 ar
    20   18   19 ar
    21   19   20 ar
    22   20   21 ar
    23    1   22 1
    24    1   23 1
    25    1   24 1
    26    2   25 1
    27    2   26 1
    28    4   27 1
    29    5   28 1
    30    7   29 1
    31    8   30 1
    32    9   31 1
    33   12   32 1
    34   12   33 1
    35   17   34 1
    36   18   35 1
    37   19   36 1
    38   20   37 1
@<TRIPOS>MOLECULE
ZINC00809299
 43 45 0 0 0
SMALL
NO_CHARGES


@<TRIPOS>ATOM
      1 C           2.122   -10.207    -1.156  C    
      2 C           2.830    -9.771    -2.393  C    
      3 C           2.602   -10.495    -3.585  C    
      4 C           3.200   -10.143    -4.818  C    
      5 C           4.072    -9.013    -4.876  C    
      6 C           4.292    -8.299    -3.667  C    
      7 C           3.693    -8.642    -2.431  C    
      8 C           3.979    -7.847    -1.279  C    
      9 C           4.323    -6.492    -1.234  C    
     10 C           4.505    -6.142     0.093  C    
     11 C           4.272    -7.287     0.853  C    
     12 O           3.959    -8.296     0.004  O    
     13 C           4.319    -7.434     2.219  C    
     14 N           4.596    -6.447     2.989  N    
     15 N           4.643    -6.513     4.257  N    
     16 C           4.912    -5.480     5.046  C    
     17 O           5.137    -4.393     4.522  O    
     18 C           4.932    -5.595     6.445  C    
     19 C           4.774    -6.840     7.111  C    
     20 C           4.791    -6.925     8.516  C    
     21 C           4.968    -5.753     9.267  C    
     22 N           5.121    -4.568     8.630  N    
     23 C           5.111    -4.457     7.277  C    
     24 N           4.704    -8.581    -6.018  N    
     25 O           5.416    -7.611    -6.048  O    
     26 O           4.590    -9.145    -7.188  O    
     27 C           2.873   -10.989    -6.001  C    
     28 H           2.847   -10.560    -0.422  H    
     29 H           1.414   -11.020    -1.334  H    
     30 H           1.560    -9.371    -0.737  H    
     31 H           1.979   -11.305    -3.551  H    
     32 H           4.932    -7.503    -3.684  H    
     33 H           4.407    -5.851    -2.026  H    
     34 H           4.754    -5.213     0.441  H    
     35 H           4.119    -8.330     2.605  H    
     36 H           4.455    -7.371     4.667  H    
     37 H           4.650    -7.708     6.587  H    
     38 H           4.676    -7.827     8.984  H    
     39 H           4.983    -5.786    10.288  H    
     40 H           5.230    -3.523     6.880  H    
     41 H           2.187   -11.807    -5.771  H    
     42 H           3.783   -11.438    -6.397  H    
     43 H           2.398   -10.380    -6.771  H    
@<TRIPOS>BOND
     1    1    2 1
     2    2    7 ar
     3    2    3 ar
     4    3    4 ar
     5    4    5 ar
     6    4   27 1
     7    5    6 ar
     8    5   24 1
     9    6    7 ar
    10    7    8 1
    11    8   12 1
    12    8    9 2
    13    9   10 1
    14   10   11 2
    15   11   12 1
    16   11   13 1
    17   13   14 2
    18   14   15 1
    19   15   16 1
    20   16   17 2
    21   16   18 1
    22   18   23 ar
    23   18   19 ar
    24   19   20 ar
    25   20   21 ar
    26   21   22 ar
    27   22   23 ar
    28   24   25 2
    29   24   26 1
    30    1   28 1
    31    1   29 1
    32    1   30 1
    33    3   31 1
    34    6   32 1
    35    9   33 1
    36   10   34 1
    37   13   35 1
    38   15   36 1
    39   19   37 1
    40   20   38 1
    41   21   39 1
    42   23   40 1
    43   27   41 1
    44   27   42 1
    45   27   43 1
@<TRIPOS>MOLECULE
ZINC00813271
 62 65 0 0 0
SMALL
NO_CHARGES


@<TRIPOS>ATOM
      1 C          -0.312     9.515    -1.066  C    
      2 C           0.885    10.175    -1.400  C    
      3 C           1.947     9.455    -1.981  C    
      4 C           1.826     8.068    -2.222  C    
      5 C           0.620     7.415    -1.883  C    
      6 C          -0.445     8.135    -1.308  C    
      7 C           2.877     7.359    -2.774  C    
      8 O           2.965     7.478    -3.992  O    
      9 N           3.752     6.608    -2.079  N    
     10 C           3.731     6.481    -0.630  C    
     11 C           3.587     4.990    -0.234  C    
     12 C           4.698     4.353    -2.358  C    
     13 C           4.814     5.855    -2.724  C    
     14 C           4.578     2.718    -0.447  C    
     15 C           5.861     1.900    -0.767  C    
     16 C           7.387     0.097     0.025  C    
     17 C           7.506    -1.163     0.919  C    
     18 N           6.516    -2.156     0.526  N    
     19 C           5.143    -1.673     0.565  C    
     20 C           4.990    -0.414    -0.327  C    
     21 C           6.865    -3.388     0.103  C    
     22 O           8.045    -3.710     0.010  O    
     23 C           5.984    -4.379    -0.308  C    
     24 C           5.101    -4.998     0.604  C    
     25 C           4.183    -5.975     0.166  C    
     26 C           4.150    -6.350    -1.189  C    
     27 C           5.039    -5.756    -2.104  C    
     28 C           5.954    -4.783    -1.664  C    
     29 N           4.653     4.157    -0.872  N    
     30 N           5.991     0.638     0.036  N    
     31 H          -1.083    10.038    -0.646  H    
     32 H           0.981    11.177    -1.220  H    
     33 H           2.812     9.951    -2.213  H    
     34 H           0.506     6.412    -2.050  H    
     35 H          -1.317     7.658    -1.066  H    
     36 H           4.672     6.869    -0.230  H    
     37 H           2.929     7.043    -0.147  H    
     38 H           3.670     4.928     0.856  H    
     39 H           2.591     4.637    -0.519  H    
     40 H           3.801     3.940    -2.829  H    
     41 H           5.568     3.848    -2.782  H    
     42 H           4.816     5.938    -3.814  H    
     43 H           5.779     6.235    -2.380  H    
     44 H           3.705     2.240    -0.904  H    
     45 H           4.448     2.679     0.638  H    
     46 H           5.896     1.666    -1.836  H    
     47 H           6.709     2.552    -0.544  H    
     48 H           8.077     0.849     0.417  H    
     49 H           7.698    -0.153    -0.993  H    
     50 H           8.538    -1.518     0.859  H    
     51 H           7.334    -0.885     1.963  H    
     52 H           4.408    -2.404     0.230  H    
     53 H           4.888    -1.414     1.596  H    
     54 H           5.098    -0.707    -1.377  H    
     55 H           3.974    -0.036    -0.184  H    
     56 H           5.109    -4.740     1.594  H    
     57 H           3.536    -6.407     0.829  H    
     58 H           3.479    -7.052    -1.511  H    
     59 H           5.010    -6.026    -3.091  H    
     60 H           6.583    -4.353    -2.348  H    
     61 H           5.539     4.513    -0.509  H    
     62 H           5.801     0.896     1.007  H    
@<TRIPOS>BOND
     1    1    6 ar
     2    1    2 ar
     3    2    3 ar
     4    3    4 ar
     5    4    5 ar
     6    4    7 1
     7    5    6 ar
     8    7    8 2
     9    7    9 1
    10    9   13 1
    11    9   10 1
    12   10   11 1
    13   11   29 1
    14   12   13 1
    15   12   29 1
    16   14   15 1
    17   14   29 1
    18   15   30 1
    19   16   17 1
    20   16   30 1
    21   17   18 1
    22   18   19 1
    23   18   21 1
    24   19   20 1
    25   20   30 1
    26   21   22 2
    27   21   23 1
    28   23   28 ar
    29   23   24 ar
    30   24   25 ar
    31   25   26 ar
    32   26   27 ar
    33   27   28 ar
    34    1   31 1
    35    2   32 1
    36    3   33 1
    37    5   34 1
    38    6   35 1
    39   10   36 1
    40   10   37 1
    41   11   38 1
    42   11   39 1
    43   12   40 1
    44   12   41 1
    45   13   42 1
    46   13   43 1
    47   14   44 1
    48   14   45 1
    49   15   46 1
    50   15   47 1
    51   16   48 1
    52   16   49 1
    53   17   50 1
    54   17   51 1
    55   19   52 1
    56   19   53 1
    57   20   54 1
    58   20   55 1
    59   24   56 1
    60   25   57 1
    61   26   58 1
    62   27   59 1
    63   28   60 1
    64   29   61 1
    65   30   62 1
@<TRIPOS>MOLECULE
ZINC00817200
 55 57 0 0 0
SMALL
NO_CHARGES


@<TRIPOS>ATOM
      1 C           1.716     5.266    -5.398  C    
      2 C           2.741     4.099    -5.405  C    
      3 C           2.922     3.445    -4.001  C    
      4 C           4.049     2.375    -4.016  C    
      5 C           3.891     1.372    -5.192  C    
      6 C           3.643     2.116    -6.532  C    
      7 N           2.540     3.035    -6.380  N    
      8 S           0.985     2.527    -6.852  S    
      9 O          -0.048     2.668    -5.650  O    
     10 O           0.475     3.476    -8.022  O    
     11 C           0.848     0.868    -7.382  C    
     12 C           1.107     0.516    -8.721  C    
     13 C           1.054    -0.831    -9.128  C    
     14 C           0.736    -1.867    -8.211  C    
     15 C           0.454    -1.491    -6.873  C    
     16 C           0.521    -0.148    -6.462  C    
     17 C           0.697    -3.208    -8.605  C    
     18 O           0.050    -4.012    -7.939  O    
     19 N           1.434    -3.641    -9.625  N    
     20 C           1.562    -4.917   -10.106  C    
     21 C           0.470    -5.811   -10.225  C    
     22 C           0.660    -7.128   -10.701  C    
     23 C           1.946    -7.537   -11.104  C    
     24 C           3.033    -6.652   -11.018  C    
     25 C           2.846    -5.337   -10.541  C    
     26 O           3.938    -4.513   -10.420  O    
     27 C           4.196    -3.719   -11.585  C    
     28 O          -0.379    -8.005   -10.864  O    
     29 C          -0.955    -8.479    -9.633  C    
     30 H           1.550     5.624    -6.415  H    
     31 H           2.100     6.097    -4.801  H    
     32 H           0.763     4.965    -4.970  H    
     33 H           3.694     4.588    -5.653  H    
     34 H           3.175     4.212    -3.263  H    
     35 H           1.984     2.971    -3.696  H    
     36 H           5.016     2.881    -4.110  H    
     37 H           4.047     1.828    -3.067  H    
     38 H           4.793     0.757    -5.271  H    
     39 H           3.046     0.706    -4.983  H    
     40 H           4.545     2.672    -6.804  H    
     41 H           3.481     1.391    -7.331  H    
     42 H           1.347     1.236    -9.404  H    
     43 H           1.247    -1.045   -10.109  H    
     44 H           0.223    -2.197    -6.169  H    
     45 H           0.336     0.082    -5.482  H    
     46 H           2.042    -2.989   -10.006  H    
     47 H          -0.474    -5.501    -9.985  H    
     48 H           2.092    -8.485   -11.460  H    
     49 H           3.962    -6.973   -11.297  H    
     50 H           4.500    -4.344   -12.430  H    
     51 H           5.020    -3.042   -11.354  H    
     52 H           3.325    -3.118   -11.872  H    
     53 H          -0.189    -8.856    -8.937  H    
     54 H          -1.634    -9.300    -9.876  H    
     55 H          -1.533    -7.683    -9.149  H    
@<TRIPOS>BOND
     1    1    2 1
     2    2    7 1
     3    2    3 1
     4    3    4 1
     5    4    5 1
     6    5    6 1
     7    6    7 1
     8    7    8 1
     9    8    9 2
    10    8   10 2
    11    8   11 1
    12   11   16 ar
    13   11   12 ar
    14   12   13 ar
    15   13   14 ar
    16   14   15 ar
    17   14   17 1
    18   15   16 ar
    19   17   18 2
    20   17   19 1
    21   19   20 1
    22   20   25 ar
    23   20   21 ar
    24   21   22 ar
    25   22   23 ar
    26   22   28 1
    27   23   24 ar
    28   24   25 ar
    29   25   26 1
    30   26   27 1
    31   28   29 1
    32    1   30 1
    33    1   31 1
    34    1   32 1
    35    2   33 1
    36    3   34 1
    37    3   35 1
    38    4   36 1
    39    4   37 1
    40    5   38 1
    41    5   39 1
    42    6   40 1
    43    6   41 1
    44   12   42 1
    45   13   43 1
    46   15   44 1
    47   16   45 1
    48   19   46 1
    49   21   47 1
    50   23   48 1
    51   24   49 1
    52   27   50 1
    53   27   51 1
    54   27   52 1
    55   29   53 1
    56   29   54 1
    57   29   55 1
@<TRIPOS>MOLECULE
ZINC00820293
 42 43 0 0 0
SMALL
NO_CHARGES


@<TRIPOS>ATOM
      1 C           1.571   -12.129    -2.881  C    
      2 C           1.643   -11.336    -1.674  C    
      3 O           0.704   -11.425    -0.893  O    
      4 N           2.677   -10.520    -1.485  N    
      5 C           2.975    -9.673    -0.450  C    
      6 C           2.401    -9.712     0.846  C    
      7 C           2.796    -8.796     1.839  C    
      8 C           3.775    -7.821     1.564  C    
      9 C           4.370    -7.790     0.286  C    
     10 C           3.974    -8.708    -0.704  C    
     11 S           4.275    -6.714     2.814  S    
     12 O           4.959    -5.441     2.147  O    
     13 O           3.003    -6.291     3.677  O    
     14 N           5.403    -7.504     3.797  N    
     15 C           6.181    -6.937     4.764  C    
     16 C           5.962    -5.639     5.284  C    
     17 C           6.823    -5.083     6.251  C    
     18 C           7.910    -5.845     6.733  C    
     19 C           8.125    -7.144     6.237  C    
     20 C           7.259    -7.698     5.272  C    
     21 O           7.524    -8.958     4.801  O    
     22 C           6.897    -9.995     5.577  C    
     23 Cl          8.957    -5.228     7.913  Cl   
     24 O           6.571    -3.831     6.743  O    
     25 C           7.112    -2.779     5.922  C    
     26 H           1.533   -13.189    -2.623  H    
     27 H           2.436   -11.967    -3.529  H    
     28 H           0.672   -11.870    -3.442  H    
     29 H           3.310   -10.495    -2.222  H    
     30 H           1.710   -10.418     1.097  H    
     31 H           2.372    -8.855     2.768  H    
     32 H           5.098    -7.106     0.069  H    
     33 H           4.424    -8.661    -1.622  H    
     34 H           5.590    -8.429     3.571  H    
     35 H           5.172    -5.079     4.961  H    
     36 H           8.914    -7.700     6.579  H    
     37 H           7.215    -9.965     6.619  H    
     38 H           7.194   -10.957     5.161  H    
     39 H           5.810    -9.925     5.525  H    
     40 H           8.198    -2.860     5.831  H    
     41 H           6.882    -1.828     6.397  H    
     42 H           6.663    -2.777     4.924  H    
@<TRIPOS>BOND
     1    1    2 1
     2    2    3 2
     3    2    4 1
     4    4    5 1
     5    5   10 ar
     6    5    6 ar
     7    6    7 ar
     8    7    8 ar
     9    8    9 ar
    10    8   11 1
    11    9   10 ar
    12   11   12 2
    13   11   13 2
    14   11   14 1
    15   14   15 1
    16   15   20 ar
    17   15   16 ar
    18   16   17 ar
    19   17   18 ar
    20   17   24 1
    21   18   19 ar
    22   18   23 1
    23   19   20 ar
    24   20   21 1
    25   21   22 1
    26   24   25 1
    27    1   26 1
    28    1   27 1
    29    1   28 1
    30    4   29 1
    31    6   30 1
    32    7   31 1
    33    9   32 1
    34   10   33 1
    35   14   34 1
    36   16   35 1
    37   19   36 1
    38   22   37 1
    39   22   38 1
    40   22   39 1
    41   25   40 1
    42   25   41 1
    43   25   42 1
@<TRIPOS>MOLECULE
ZINC00825878
 38 39 0 0 0
SMALL
NO_CHARGES


@<TRIPOS>ATOM
      1 C          -5.872     3.203    -1.067  C    
      2 C          -4.591     2.775    -0.329  C    
      3 O          -3.833     3.937     0.033  O    
      4 C          -2.692     3.956     0.768  C    
      5 O          -2.183     2.814     1.288  O    
      6 N          -2.092     5.149     0.949  N    
      7 S          -0.674     5.462     1.801  S    
      8 O          -0.574     7.047     2.387  O    
      9 C           0.199     5.295     0.297  C    
     10 C           0.763     4.054    -0.074  C    
     11 C           1.463     3.928    -1.290  C    
     12 C           1.611     5.042    -2.141  C    
     13 C           1.058     6.285    -1.771  C    
     14 C           0.357     6.410    -0.557  C    
     15 Cl          2.458     4.888    -3.600  Cl   
     16 O          -0.235     4.251     2.909  O    
     17 C           0.559     4.335     4.014  C    
     18 C           1.440     5.408     4.276  C    
     19 C           2.242     5.413     5.430  C    
     20 C           2.201     4.338     6.358  C    
     21 C           1.321     3.260     6.074  C    
     22 C           0.519     3.256     4.917  C    
     23 N           2.988     4.342     7.478  N    
     24 O           2.965     3.455     8.294  O    
     25 O           3.823     5.312     7.744  O    
     26 H          -6.540     3.727    -0.379  H    
     27 H          -6.390     2.325    -1.457  H    
     28 H          -5.625     3.872    -1.895  H    
     29 H          -4.861     2.202     0.564  H    
     30 H          -3.986     2.142    -0.986  H    
     31 H           0.662     3.234     0.531  H    
     32 H           1.863     3.022    -1.548  H    
     33 H           1.160     7.101    -2.380  H    
     34 H          -0.044     7.317    -0.307  H    
     35 H           1.523     6.183     3.623  H    
     36 H           2.870     6.208     5.582  H    
     37 H           1.265     2.451     6.706  H    
     38 H          -0.102     2.461     4.736  H    
@<TRIPOS>BOND
     1    1    2 1
     2    2    3 1
     3    3    4 1
     4    4    5 2
     5    4    6 1
     6    6    7 2
     7    7    8 2
     8    7    9 1
     9    7   16 1
    10    9   14 ar
    11    9   10 ar
    12   10   11 ar
    13   11   12 ar
    14   12   13 ar
    15   12   15 1
    16   13   14 ar
    17   16   17 1
    18   17   22 ar
    19   17   18 ar
    20   18   19 ar
    21   19   20 ar
    22   20   21 ar
    23   20   23 1
    24   21   22 ar
    25   23   24 2
    26   23   25 1
    27    1   26 1
    28    1   27 1
    29    1   28 1
    30    2   29 1
    31    2   30 1
    32   10   31 1
    33   11   32 1
    34   13   33 1
    35   14   34 1
    36   18   35 1
    37   19   36 1
    38   21   37 1
    39   22   38 1
@<TRIPOS>MOLECULE
ZINC00844016
 53 55 0 0 0
SMALL
NO_CHARGES


@<TRIPOS>ATOM
      1 C          -0.813    -2.987   -11.548  C    
      2 C           0.367    -2.081   -11.968  C    
      3 N           1.548    -2.276   -11.129  N    
      4 C           2.534    -3.067   -11.667  C    
      5 C           3.702    -3.374   -10.972  C    
      6 C           3.890    -2.868    -9.680  C    
      7 C           5.077    -3.184    -8.979  C    
      8 C           5.297    -2.690    -7.681  C    
      9 C           4.297    -1.919    -7.057  C    
     10 C           3.123    -1.597    -7.765  C    
     11 C           2.885    -2.046    -9.094  C    
     12 C           1.706    -1.730    -9.855  C    
     13 C           0.687    -0.784    -9.262  C    
     14 C           1.167     0.625    -9.168  C    
     15 C           1.625     1.312   -10.318  C    
     16 C           2.082     2.643   -10.232  C    
     17 C           2.084     3.314    -8.995  C    
     18 C           1.572     2.664    -7.850  C    
     19 C           1.138     1.327    -7.939  C    
     20 O           1.582     3.310    -6.642  O    
     21 C           0.309     3.882    -6.292  C    
     22 O           2.536     4.601    -8.921  O    
     23 C           3.947     4.680    -8.648  C    
     24 O           4.495    -1.432    -5.792  O    
     25 C           3.913    -2.257    -4.764  C    
     26 O           6.437    -3.015    -6.997  O    
     27 C           7.541    -2.148    -7.287  C    
     28 H          -0.534    -4.034   -11.671  H    
     29 H          -1.682    -2.781   -12.178  H    
     30 H          -1.095    -2.823   -10.507  H    
     31 H           0.563    -2.303   -13.022  H    
     32 H           0.059    -1.036   -11.976  H    
     33 H           2.438    -3.476   -12.601  H    
     34 H           4.408    -3.960   -11.420  H    
     35 H           5.794    -3.774    -9.406  H    
     36 H           2.434    -1.041    -7.267  H    
     37 H          -0.240    -0.738    -9.824  H    
     38 H           0.382    -1.173    -8.289  H    
     39 H           1.646     0.847   -11.227  H    
     40 H           2.426     3.118   -11.073  H    
     41 H           0.794     0.866    -7.093  H    
     42 H          -0.024     4.609    -7.036  H    
     43 H           0.420     4.398    -5.338  H    
     44 H          -0.453     3.104    -6.175  H    
     45 H           4.204     4.198    -7.700  H    
     46 H           4.219     5.735    -8.579  H    
     47 H           4.531     4.231    -9.458  H    
     48 H           2.822    -2.305    -4.861  H    
     49 H           4.150    -1.804    -3.800  H    
     50 H           4.327    -3.273    -4.778  H    
     51 H           7.852    -2.248    -8.330  H    
     52 H           8.378    -2.440    -6.652  H    
     53 H           7.305    -1.104    -7.076  H    
@<TRIPOS>BOND
     1    1    2 1
     2    2    3 1
     3    3   12 ar
     4    3    4 ar
     5    4    5 ar
     6    5    6 ar
     7    6   11 ar
     8    6    7 ar
     9    7    8 ar
    10    8    9 ar
    11    8   26 1
    12    9   10 ar
    13    9   24 1
    14   10   11 ar
    15   11   12 ar
    16   12   13 1
    17   13   14 1
    18   14   19 ar
    19   14   15 ar
    20   15   16 ar
    21   16   17 ar
    22   17   18 ar
    23   17   22 1
    24   18   19 ar
    25   18   20 1
    26   20   21 1
    27   22   23 1
    28   24   25 1
    29   26   27 1
    30    1   28 1
    31    1   29 1
    32    1   30 1
    33    2   31 1
    34    2   32 1
    35    4   33 1
    36    5   34 1
    37    7   35 1
    38   10   36 1
    39   13   37 1
    40   13   38 1
    41   15   39 1
    42   16   40 1
    43   19   41 1
    44   21   42 1
    45   21   43 1
    46   21   44 1
    47   23   45 1
    48   23   46 1
    49   23   47 1
    50   25   48 1
    51   25   49 1
    52   25   50 1
    53   27   51 1
    54   27   52 1
    55   27   53 1
@<TRIPOS>MOLECULE
ZINC00845784
 49 52 0 0 0
SMALL
NO_CHARGES


@<TRIPOS>ATOM
      1 C           6.095    -3.038    -4.422  C    
      2 C           5.531    -2.144    -3.389  C    
      3 N           4.201    -1.974    -3.229  N    
      4 C           4.035    -1.090    -2.238  C    
      5 C           2.853    -0.565    -1.691  C    
      6 C           2.938     0.395    -0.652  C    
      7 C           4.224     0.793    -0.191  C    
      8 C           5.400     0.248    -0.747  C    
      9 C           5.293    -0.704    -1.780  C    
     10 N           6.217    -1.378    -2.497  N    
     11 C           7.647    -1.272    -2.346  C    
     12 C           8.132    -1.818    -1.050  C    
     13 C           7.920    -3.180    -0.730  C    
     14 C           8.382    -3.713     0.489  C    
     15 C           9.069    -2.892     1.400  C    
     16 C           9.293    -1.537     1.094  C    
     17 C           8.832    -1.005    -0.125  C    
     18 N           1.772     0.881    -0.157  N    
     19 C           1.628     1.890     0.847  C    
     20 C           0.198     2.125     1.183  C    
     21 C          -0.415     3.366     0.877  C    
     22 C          -1.755     3.657     1.242  C    
     23 C          -2.486     2.642     1.909  C    
     24 C          -1.904     1.399     2.205  C    
     25 C          -0.567     1.137     1.857  C    
     26 O          -0.066    -0.080     2.204  O    
     27 N          -2.315     4.870     0.968  N    
     28 O          -3.428     5.168     1.320  O    
     29 O          -1.678     5.811     0.326  O    
     30 H           6.698    -2.460    -5.125  H    
     31 H           5.303    -3.537    -4.981  H    
     32 H           6.721    -3.800    -3.958  H    
     33 H           1.947    -0.876    -2.052  H    
     34 H           4.316     1.482     0.557  H    
     35 H           6.313     0.548    -0.403  H    
     36 H           8.159    -1.813    -3.142  H    
     37 H           7.924    -0.221    -2.458  H    
     38 H           7.429    -3.794    -1.382  H    
     39 H           8.222    -4.699     0.709  H    
     40 H           9.406    -3.278     2.285  H    
     41 H           9.797    -0.940     1.756  H    
     42 H           9.012    -0.020    -0.329  H    
     43 H           0.952     0.523    -0.532  H    
     44 H           2.151     1.592     1.762  H    
     45 H           2.097     2.810     0.483  H    
     46 H           0.136     4.081     0.396  H    
     47 H          -3.459     2.801     2.190  H    
     48 H          -2.456     0.685     2.684  H    
     49 H           0.860    -0.106     1.889  H    
@<TRIPOS>BOND
     1    1    2 1
     2    2   10 1
     3    2    3 2
     4    3    4 1
     5    4    9 ar
     6    4    5 ar
     7    5    6 ar
     8    6    7 ar
     9    6   18 1
    10    7    8 ar
    11    8    9 ar
    12    9   10 1
    13   10   11 1
    14   11   12 1
    15   12   17 ar
    16   12   13 ar
    17   13   14 ar
    18   14   15 ar
    19   15   16 ar
    20   16   17 ar
    21   18   19 1
    22   19   20 1
    23   20   25 ar
    24   20   21 ar
    25   21   22 ar
    26   22   23 ar
    27   22   27 1
    28   23   24 ar
    29   24   25 ar
    30   25   26 1
    31   27   28 2
    32   27   29 1
    33    1   30 1
    34    1   31 1
    35    1   32 1
    36    5   33 1
    37    7   34 1
    38    8   35 1
    39   11   36 1
    40   11   37 1
    41   13   38 1
    42   14   39 1
    43   15   40 1
    44   16   41 1
    45   17   42 1
    46   18   43 1
    47   19   44 1
    48   19   45 1
    49   21   46 1
    50   23   47 1
    51   24   48 1
    52   26   49 1
@<TRIPOS>MOLECULE
ZINC00849462
 40 41 0 0 0
SMALL
NO_CHARGES


@<TRIPOS>ATOM
      1 C           3.466     2.291    -9.970  C    
      2 C           3.459     2.967    -8.735  C    
      3 C           3.046     2.297    -7.568  C    
      4 C           2.613     0.949    -7.616  C    
      5 C           2.636     0.280    -8.870  C    
      6 C           3.058     0.946   -10.036  C    
      7 C           2.228     0.316    -6.432  C    
      8 C           1.241    -0.586    -6.256  C    
      9 C           0.282    -0.879    -7.154  C    
     10 N           0.141    -2.096    -7.532  N    
     11 N          -0.735    -2.523    -8.343  N    
     12 C          -0.815    -3.780    -8.743  C    
     13 O          -0.013    -4.624    -8.363  O    
     14 C          -1.860    -4.187    -9.666  C    
     15 C          -3.582    -5.909   -10.183  C    
     16 C          -4.381    -7.098    -9.597  C    
     17 O          -5.141    -6.687    -8.442  O    
     18 C          -4.335    -6.107    -7.396  C    
     19 C          -3.535    -4.893    -7.926  C    
     20 Br         -0.817     0.466    -7.760  Br   
     21 N          -2.721    -5.288    -9.125  N    
     22 H           3.768     2.775   -10.816  H    
     23 H           3.757     3.944    -8.685  H    
     24 H           3.052     2.811    -6.680  H    
     25 H           2.373    -0.707    -8.941  H    
     26 H           3.069     0.451   -10.932  H    
     27 H           2.722     0.580    -5.610  H    
     28 H           1.142    -0.992    -5.354  H    
     29 H          -1.384    -1.892    -8.691  H    
     30 H          -2.490    -3.334    -9.946  H    
     31 H          -1.355    -4.525   -10.576  H    
     32 H          -2.962    -6.289   -11.002  H    
     33 H          -4.285    -5.172   -10.589  H    
     34 H          -5.076    -7.473   -10.351  H    
     35 H          -3.700    -7.914    -9.332  H    
     36 H          -4.998    -5.779    -6.590  H    
     37 H          -3.650    -6.859    -6.986  H    
     38 H          -4.233    -4.089    -8.186  H    
     39 H          -2.887    -4.537    -7.121  H    
     40 H          -2.083    -6.026    -8.810  H    
@<TRIPOS>BOND
     1    1    6 ar
     2    1    2 ar
     3    2    3 ar
     4    3    4 ar
     5    4    5 ar
     6    4    7 1
     7    5    6 ar
     8    7    8 2
     9    8    9 1
    10    9   10 2
    11    9   20 1
    12   10   11 1
    13   11   12 1
    14   12   13 2
    15   12   14 1
    16   14   21 1
    17   15   16 1
    18   15   21 1
    19   16   17 1
    20   17   18 1
    21   18   19 1
    22   19   21 1
    23    1   22 1
    24    2   23 1
    25    3   24 1
    26    5   25 1
    27    6   26 1
    28    7   27 1
    29    8   28 1
    30   11   29 1
    31   14   30 1
    32   14   31 1
    33   15   32 1
    34   15   33 1
    35   16   34 1
    36   16   35 1
    37   18   36 1
    38   18   37 1
    39   19   38 1
    40   19   39 1
    41   21   40 1
@<TRIPOS>MOLECULE
ZINC00859845
 40 41 0 0 0
SMALL
NO_CHARGES


@<TRIPOS>ATOM
      1 C           2.557    -5.300    -0.908  C    
      2 C           3.523    -6.197    -0.093  C    
      3 C           3.203    -7.708    -0.288  C    
      4 C           4.220    -8.649     0.414  C    
      5 C           3.917   -10.085     0.159  C    
      6 C           2.809   -10.703     0.786  C    
      7 C           2.509   -12.057     0.540  C    
      8 C           3.312   -12.808    -0.335  C    
      9 C           4.420   -12.208    -0.963  C    
     10 C           4.722   -10.855    -0.715  C    
     11 N           3.402    -5.841     1.294  N    
     12 C           4.354    -5.372     2.093  C    
     13 O           5.488    -5.179     1.673  O    
     14 C           4.060    -5.013     3.408  C    
     15 C           2.926    -4.181     3.608  C    
     16 C           2.631    -3.644     4.871  C    
     17 C           3.474    -3.908     5.956  C    
     18 C           4.591    -4.747     5.782  C    
     19 C           4.895    -5.344     4.529  C    
     20 N           5.935    -6.237     4.477  N    
     21 O           6.124    -6.985     3.549  O    
     22 O           6.722    -6.471     5.492  O    
     23 Cl          3.128    -3.241     7.477  Cl   
     24 H           2.622    -5.537    -1.974  H    
     25 H           2.822    -4.247    -0.774  H    
     26 H           1.523    -5.443    -0.582  H    
     27 H           4.535    -6.013    -0.473  H    
     28 H           2.196    -7.911     0.088  H    
     29 H           3.211    -7.934    -1.358  H    
     30 H           5.225    -8.402     0.057  H    
     31 H           4.211    -8.475     1.493  H    
     32 H           2.215   -10.171     1.428  H    
     33 H           1.705   -12.493     1.000  H    
     34 H           3.092   -13.791    -0.514  H    
     35 H           5.003   -12.755    -1.602  H    
     36 H           5.527   -10.436    -1.185  H    
     37 H           2.522    -5.955     1.688  H    
     38 H           2.319    -3.922     2.823  H    
     39 H           1.815    -3.035     4.985  H    
     40 H           5.170    -4.940     6.601  H    
@<TRIPOS>BOND
     1    1    2 1
     2    2    3 1
     3    2   11 1
     4    3    4 1
     5    4    5 1
     6    5   10 ar
     7    5    6 ar
     8    6    7 ar
     9    7    8 ar
    10    8    9 ar
    11    9   10 ar
    12   11   12 1
    13   12   13 2
    14   12   14 1
    15   14   19 ar
    16   14   15 ar
    17   15   16 ar
    18   16   17 ar
    19   17   18 ar
    20   17   23 1
    21   18   19 ar
    22   19   20 1
    23   20   21 2
    24   20   22 1
    25    1   24 1
    26    1   25 1
    27    1   26 1
    28    2   27 1
    29    3   28 1
    30    3   29 1
    31    4   30 1
    32    4   31 1
    33    6   32 1
    34    7   33 1
    35    8   34 1
    36    9   35 1
    37   10   36 1
    38   11   37 1
    39   15   38 1
    40   16   39 1
    41   18   40 1
@<TRIPOS>MOLECULE
ZINC00860883
 48 51 0 0 0
SMALL
NO_CHARGES


@<TRIPOS>ATOM
      1 C           6.735    -1.025     0.748  C    
      2 O           5.667    -1.846     0.240  O    
      3 C           4.429    -1.433     0.653  C    
      4 C           3.745    -0.431    -0.068  C    
      5 C           2.468     0.019     0.339  C    
      6 C           1.876    -0.579     1.480  C    
      7 C           2.539    -1.599     2.185  C    
      8 C           3.812    -2.032     1.774  C    
      9 O           4.425    -3.017     2.483  O    
     10 C           1.782     1.123    -0.407  C    
     11 C           1.583     2.316     0.400  C    
     12 C           0.281     2.607     0.442  C    
     13 C          -0.396     1.701    -0.268  C    
     14 O          -1.608     1.753    -0.439  O    
     15 N           0.431     0.807    -0.788  N    
     16 C           0.072    -0.272    -1.573  C    
     17 C           0.797    -0.613    -2.742  C    
     18 C           0.437    -1.733    -3.516  C    
     19 C          -0.652    -2.521    -3.105  C    
     20 N          -1.329    -2.192    -1.977  N    
     21 C          -1.008    -1.113    -1.216  C    
     22 O          -0.288     3.618     1.093  O    
     23 C           2.572     2.978     1.065  C    
     24 O           2.488     2.968     2.289  O    
     25 C           3.731     3.474     0.449  C    
     26 C           3.731     3.902    -0.906  C    
     27 C           4.901     4.388    -1.520  C    
     28 C           6.101     4.466    -0.790  C    
     29 C           6.122     4.059     0.558  C    
     30 C           4.950     3.576     1.170  C    
     31 Cl          7.512     5.046    -1.527  Cl   
     32 H           6.664     0.000     0.362  H    
     33 H           7.680    -1.456     0.410  H    
     34 H           6.742    -1.005     1.847  H    
     35 H           4.200    -0.017    -0.885  H    
     36 H           0.955    -0.273     1.805  H    
     37 H           2.093    -2.020     3.006  H    
     38 H           5.275    -3.191     2.027  H    
     39 H           2.348     1.403    -1.302  H    
     40 H           1.586    -0.040    -3.050  H    
     41 H           0.959    -1.972    -4.362  H    
     42 H          -0.932    -3.342    -3.647  H    
     43 H          -1.548    -0.939    -0.366  H    
     44 H           0.446     4.143     1.477  H    
     45 H           2.871     3.878    -1.461  H    
     46 H           4.872     4.689    -2.497  H    
     47 H           6.989     4.112     1.100  H    
     48 H           5.006     3.281     2.151  H    
@<TRIPOS>BOND
     1    1    2 1
     2    2    3 1
     3    3    8 ar
     4    3    4 ar
     5    4    5 ar
     6    5    6 ar
     7    5   10 1
     8    6    7 ar
     9    7    8 ar
    10    8    9 1
    11   10   15 1
    12   10   11 1
    13   11   12 2
    14   11   23 1
    15   12   13 1
    16   12   22 1
    17   13   14 2
    18   13   15 1
    19   15   16 1
    20   16   21 ar
    21   16   17 ar
    22   17   18 ar
    23   18   19 ar
    24   19   20 ar
    25   20   21 ar
    26   23   24 2
    27   23   25 1
    28   25   30 ar
    29   25   26 ar
    30   26   27 ar
    31   27   28 ar
    32   28   29 ar
    33   28   31 1
    34   29   30 ar
    35    1   32 1
    36    1   33 1
    37    1   34 1
    38    4   35 1
    39    6   36 1
    40    7   37 1
    41    9   38 1
    42   10   39 1
    43   17   40 1
    44   18   41 1
    45   19   42 1
    46   21   43 1
    47   22   44 1
    48   26   45 1
    49   27   46 1
    50   29   47 1
    51   30   48 1
@<TRIPOS>MOLECULE
ZINC00880742
 49 51 0 0 0
SMALL
NO_CHARGES


@<TRIPOS>ATOM
      1 C           7.925    -9.982    -1.694  C    
      2 C           8.049    -8.536    -2.214  C    
      3 O           7.098    -7.668    -1.587  O    
      4 C           5.758    -7.605    -1.802  C    
      5 O           5.184    -8.383    -2.750  O    
      6 C           4.948    -6.740    -1.044  C    
      7 C           5.292    -5.903     0.025  C    
      8 C           4.107    -5.299     0.460  C    
      9 C           3.095    -5.715    -0.413  C    
     10 N           3.632    -6.595    -1.273  N    
     11 C           1.684    -5.301    -0.441  C    
     12 C           3.943    -4.473     1.568  C    
     13 C           3.773    -3.139     1.460  C    
     14 C           3.774    -2.404     0.315  C    
     15 O           3.621    -1.192     0.352  O    
     16 S           4.110    -5.126     3.162  S    
     17 C           3.527    -6.760     2.972  C    
     18 C           4.319    -7.930     3.118  C    
     19 C           5.655    -8.127     3.574  C    
     20 C           6.082    -9.471     3.496  C    
     21 S           4.777   -10.433     2.917  S    
     22 C           3.679    -9.129     2.752  C    
     23 N           2.392    -9.201     2.338  N    
     24 C           1.656    -8.067     2.273  C    
     25 N           2.229    -6.876     2.579  N    
     26 C           7.402   -10.050     3.836  C    
     27 C           6.519    -7.063     4.147  C    
     28 C           6.657    -5.663     0.541  C    
     29 H           8.083    -9.996    -0.614  H    
     30 H           8.674   -10.615    -2.169  H    
     31 H           6.935   -10.387    -1.912  H    
     32 H           9.048    -8.168    -1.974  H    
     33 H           7.926    -8.509    -3.300  H    
     34 H           3.141    -7.055    -1.977  H    
     35 H           1.214    -5.498     0.521  H    
     36 H           1.141    -5.849    -1.214  H    
     37 H           1.614    -4.235    -0.657  H    
     38 H           3.666    -2.620     2.309  H    
     39 H           3.965    -2.822    -0.567  H    
     40 H           0.677    -8.107     1.975  H    
     41 H           8.184    -9.568     3.245  H    
     42 H           7.425   -11.123     3.625  H    
     43 H           7.614    -9.901     4.896  H    
     44 H           6.747    -6.310     3.397  H    
     45 H           7.472    -7.448     4.519  H    
     46 H           6.012    -6.587     4.987  H    
     47 H           7.068    -6.593     0.933  H    
     48 H           6.665    -4.911     1.329  H    
     49 H           7.296    -5.304    -0.268  H    
@<TRIPOS>BOND
     1    1    2 1
     2    2    3 1
     3    3    4 1
     4    4    5 2
     5    4    6 1
     6    6   10 1
     7    6    7 2
     8    7    8 1
     9    7   28 1
    10    8    9 2
    11    8   12 1
    12    9   10 1
    13    9   11 1
    14   12   13 2
    15   12   16 1
    16   13   14 1
    17   14   15 2
    18   16   17 1
    19   17   25 ar
    20   17   18 ar
    21   18   22 ar
    22   18   19 1
    23   19   20 2
    24   19   27 1
    25   20   21 1
    26   20   26 1
    27   21   22 1
    28   22   23 ar
    29   23   24 ar
    30   24   25 ar
    31    1   29 1
    32    1   30 1
    33    1   31 1
    34    2   32 1
    35    2   33 1
    36   10   34 1
    37   11   35 1
    38   11   36 1
    39   11   37 1
    40   13   38 1
    41   14   39 1
    42   24   40 1
    43   26   41 1
    44   26   42 1
    45   26   43 1
    46   27   44 1
    47   27   45 1
    48   27   46 1
    49   28   47 1
    50   28   48 1
    51   28   49 1
@<TRIPOS>MOLECULE
ZINC00883797
 64 67 0 0 0
SMALL
NO_CHARGES


@<TRIPOS>ATOM
      1 C          -3.396     5.270     3.099  C    
      2 C          -3.152     6.445     2.098  C    
      3 C          -4.531     6.884     1.499  C    
      4 C          -4.412     8.129     0.578  C    
      5 C          -3.289     7.960    -0.477  C    
      6 C          -1.962     7.503     0.200  C    
      7 N          -2.213     6.277     0.974  N    
      8 C          -1.720     5.076     0.636  C    
      9 O          -1.267     4.345     1.508  O    
     10 C          -1.653     4.547    -0.721  C    
     11 S          -2.489     2.941    -0.849  S    
     12 C          -1.968     2.572    -2.471  C    
     13 N          -2.305     3.299    -3.544  N    
     14 N          -1.750     2.771    -4.583  N    
     15 C          -1.043     1.692    -4.206  C    
     16 N          -1.201     1.539    -2.872  N    
     17 C          -0.730     0.490    -2.015  C    
     18 C          -0.264     0.942    -5.120  C    
     19 C          -0.764     0.629    -6.408  C    
     20 C           0.013    -0.105    -7.320  C    
     21 C           1.311    -0.531    -6.973  C    
     22 C           1.825    -0.203    -5.701  C    
     23 C           1.048     0.533    -4.791  C    
     24 S           2.252    -1.477    -8.096  S    
     25 O           2.250    -0.651    -9.454  O    
     26 O           3.775    -1.594    -7.654  O    
     27 N           1.638    -3.035    -8.344  N    
     28 C           1.041    -3.716    -7.226  C    
     29 C           1.079    -5.254    -7.412  C    
     30 O           0.597    -5.624    -8.719  O    
     31 C           1.344    -5.015    -9.788  C    
     32 C           1.314    -3.469    -9.677  C    
     33 C          -0.751     7.568    -0.780  C    
     34 H          -3.759     4.383     2.576  H    
     35 H          -4.134     5.554     3.853  H    
     36 H          -2.469     5.025     3.624  H    
     37 H          -2.779     7.263     2.725  H    
     38 H          -4.950     6.056     0.918  H    
     39 H          -5.233     7.121     2.302  H    
     40 H          -5.368     8.296     0.071  H    
     41 H          -4.200     9.006     1.194  H    
     42 H          -3.601     7.221    -1.219  H    
     43 H          -3.143     8.916    -0.988  H    
     44 H          -1.703     8.276     0.934  H    
     45 H          -2.161     5.207    -1.424  H    
     46 H          -0.601     4.441    -1.011  H    
     47 H           0.010     0.890    -1.320  H    
     48 H          -0.281    -0.333    -2.572  H    
     49 H          -1.565     0.074    -1.446  H    
     50 H          -1.705     0.924    -6.683  H    
     51 H          -0.376    -0.334    -8.239  H    
     52 H           2.764    -0.499    -5.429  H    
     53 H           1.462     0.782    -3.888  H    
     54 H           1.561    -3.472    -6.294  H    
     55 H          -0.000    -3.393    -7.130  H    
     56 H           2.101    -5.620    -7.271  H    
     57 H           0.444    -5.726    -6.661  H    
     58 H           2.378    -5.373    -9.772  H    
     59 H           0.903    -5.319   -10.738  H    
     60 H           0.314    -3.110    -9.933  H    
     61 H           2.025    -3.068   -10.403  H    
     62 H          -0.952     7.059    -1.722  H    
     63 H           0.136     7.126    -0.316  H    
     64 H          -0.521     8.610    -1.023  H    
@<TRIPOS>BOND
     1    1    2 1
     2    2    7 1
     3    2    3 1
     4    3    4 1
     5    4    5 1
     6    5    6 1
     7    6    7 1
     8    6   33 1
     9    7    8 1
    10    8    9 2
    11    8   10 1
    12   10   11 1
    13   11   12 1
    14   12   16 1
    15   12   13 2
    16   13   14 1
    17   14   15 2
    18   15   16 1
    19   15   18 1
    20   16   17 1
    21   18   23 ar
    22   18   19 ar
    23   19   20 ar
    24   20   21 ar
    25   21   22 ar
    26   21   24 1
    27   22   23 ar
    28   24   25 2
    29   24   26 2
    30   24   27 1
    31   27   32 1
    32   27   28 1
    33   28   29 1
    34   29   30 1
    35   30   31 1
    36   31   32 1
    37    1   34 1
    38    1   35 1
    39    1   36 1
    40    2   37 1
    41    3   38 1
    42    3   39 1
    43    4   40 1
    44    4   41 1
    45    5   42 1
    46    5   43 1
    47    6   44 1
    48   10   45 1
    49   10   46 1
    50   17   47 1
    51   17   48 1
    52   17   49 1
    53   19   50 1
    54   20   51 1
    55   22   52 1
    56   23   53 1
    57   28   54 1
    58   28   55 1
    59   29   56 1
    60   29   57 1
    61   31   58 1
    62   31   59 1
    63   32   60 1
    64   32   61 1
    65   33   62 1
    66   33   63 1
    67   33   64 1
@<TRIPOS>MOLECULE
ZINC00890893
 59 64 0 0 0
SMALL
NO_CHARGES


@<TRIPOS>ATOM
      1 C           5.509     5.674   -11.151  C    
      2 C           4.192     5.176   -10.687  C    
      3 C           3.009     5.918   -10.895  C    
      4 C           1.776     5.433   -10.428  C    
      5 C           1.710     4.204    -9.748  C    
      6 C           2.874     3.425    -9.545  C    
      7 C           4.108     3.938   -10.009  C    
      8 N           2.937     2.237    -8.887  N    
      9 C           1.992     1.436    -8.388  C    
     10 S           0.447     1.229    -9.082  S    
     11 N           2.349     0.619    -7.424  N    
     12 C           2.634    -0.747    -7.700  C    
     13 C           4.063    -1.108    -7.485  C    
     14 C           5.070    -0.576    -8.332  C    
     15 C           6.427    -0.898    -8.137  C    
     16 C           6.770    -1.772    -7.092  C    
     17 C           5.798    -2.310    -6.264  C    
     18 C           4.443    -1.992    -6.441  C    
     19 O           6.334    -3.122    -5.333  O    
     20 C           7.696    -3.214    -5.788  C    
     21 O           8.000    -2.193    -6.754  O    
     22 C           2.490     1.145    -6.109  C    
     23 C           1.220     1.607    -5.525  C    
     24 C           0.812     2.886    -5.721  C    
     25 C          -0.389     3.369    -5.195  C    
     26 C          -0.841     4.694    -5.402  C    
     27 C          -2.061     5.098    -4.827  C    
     28 C          -2.819     4.220    -4.061  C    
     29 C          -2.398     2.896    -3.848  C    
     30 C          -1.179     2.470    -4.420  C    
     31 N          -0.739     1.186    -4.260  N    
     32 C           0.403     0.757    -4.797  C    
     33 O           0.675    -0.424    -4.626  O    
     34 O          -3.951     4.797    -3.611  O    
     35 C          -3.754     6.165    -4.010  C    
     36 O          -2.647     6.305    -4.927  O    
     37 H           6.181     5.786   -10.296  H    
     38 H           5.429     6.639   -11.651  H    
     39 H           5.947     4.962   -11.853  H    
     40 H           3.035     6.817   -11.382  H    
     41 H           0.926     5.981   -10.573  H    
     42 H           0.805     3.905    -9.384  H    
     43 H           4.966     3.401    -9.853  H    
     44 H           3.840     1.940    -8.703  H    
     45 H           1.981    -1.360    -7.071  H    
     46 H           2.388    -1.021    -8.732  H    
     47 H           4.821     0.048    -9.102  H    
     48 H           7.150    -0.507    -8.745  H    
     49 H           3.747    -2.398    -5.811  H    
     50 H           8.375    -3.125    -4.936  H    
     51 H           7.853    -4.194    -6.247  H    
     52 H           2.935     0.409    -5.433  H    
     53 H           3.218     1.964    -6.126  H    
     54 H           1.377     3.507    -6.258  H    
     55 H          -0.297     5.360    -5.958  H    
     56 H          -2.974     2.256    -3.292  H    
     57 H          -1.287     0.562    -3.753  H    
     58 H          -4.665     6.538    -4.484  H    
     59 H          -3.552     6.769    -3.116  H    
@<TRIPOS>BOND
     1    1    2 1
     2    2    7 ar
     3    2    3 ar
     4    3    4 ar
     5    4    5 ar
     6    5    6 ar
     7    6    7 ar
     8    6    8 1
     9    8    9 1
    10    9   10 2
    11    9   11 1
    12   11   12 1
    13   11   22 1
    14   12   13 1
    15   13   18 ar
    16   13   14 ar
    17   14   15 ar
    18   15   16 ar
    19   16   21 1
    20   16   17 ar
    21   17   18 ar
    22   17   19 1
    23   19   20 1
    24   20   21 1
    25   22   23 1
    26   23   32 1
    27   23   24 2
    28   24   25 1
    29   25   30 ar
    30   25   26 ar
    31   26   27 ar
    32   27   36 1
    33   27   28 ar
    34   28   29 ar
    35   28   34 1
    36   29   30 ar
    37   30   31 1
    38   31   32 1
    39   32   33 2
    40   34   35 1
    41   35   36 1
    42    1   37 1
    43    1   38 1
    44    1   39 1
    45    3   40 1
    46    4   41 1
    47    5   42 1
    48    7   43 1
    49    8   44 1
    50   12   45 1
    51   12   46 1
    52   14   47 1
    53   15   48 1
    54   18   49 1
    55   20   50 1
    56   20   51 1
    57   22   52 1
    58   22   53 1
    59   24   54 1
    60   26   55 1
    61   29   56 1
    62   31   57 1
    63   35   58 1
    64   35   59 1
@<TRIPOS>MOLECULE
ZINC00905237
 54 57 0 0 0
SMALL
NO_CHARGES


@<TRIPOS>ATOM
      1 C          -5.488    -5.183     6.367  C    
      2 C          -4.587    -5.379     5.306  C    
      3 C          -4.722    -4.472     4.244  C    
      4 S          -6.002    -3.401     4.665  S    
      5 C          -6.367    -4.110     6.186  C    
      6 C          -3.965    -4.425     3.089  C    
      7 O          -4.427    -5.097     2.039  O    
      8 C          -2.764    -3.806     2.994  C    
      9 C          -2.152    -3.032     3.918  C    
     10 C          -1.001    -2.568     3.428  C    
     11 O          -0.262    -1.794     4.021  O    
     12 N          -0.808    -3.034     2.208  N    
     13 C          -1.890    -3.893     1.829  C    
     14 C          -1.422    -5.280     1.505  C    
     15 C          -0.963    -6.166     2.515  C    
     16 C          -0.541    -7.468     2.197  C    
     17 C          -0.532    -7.902     0.858  C    
     18 C          -0.959    -7.027    -0.161  C    
     19 C          -1.410    -5.734     0.164  C    
     20 Cl         -0.004    -9.467     0.470  Cl   
     21 C           0.278    -2.650     1.334  C    
     22 C           0.063    -1.249     0.697  C    
     23 C           1.274    -0.798    -0.166  C    
     24 C           1.995     0.592    -2.100  C    
     25 C           1.678     1.852    -2.942  C    
     26 O           1.627     3.026    -2.110  O    
     27 C           0.673     2.932    -1.036  C    
     28 C           0.959     1.698    -0.144  C    
     29 O          -2.594    -2.696     5.008  O    
     30 N           1.025     0.446    -0.967  N    
     31 H          -5.504    -5.773     7.202  H    
     32 H          -3.890    -6.132     5.312  H    
     33 H          -7.089    -3.806     6.840  H    
     34 H          -5.276    -5.502     2.310  H    
     35 H          -2.401    -3.442     0.971  H    
     36 H          -0.949    -5.870     3.495  H    
     37 H          -0.236    -8.097     2.944  H    
     38 H          -0.941    -7.325    -1.141  H    
     39 H          -1.715    -5.117    -0.596  H    
     40 H           1.220    -2.665     1.895  H    
     41 H           0.380    -3.381     0.523  H    
     42 H          -0.830    -1.284     0.066  H    
     43 H          -0.110    -0.523     1.493  H    
     44 H           2.149    -0.665     0.477  H    
     45 H           1.496    -1.622    -0.850  H    
     46 H           1.932    -0.278    -2.761  H    
     47 H           3.021     0.661    -1.722  H    
     48 H           2.462     1.996    -3.689  H    
     49 H           0.728     1.722    -3.470  H    
     50 H           0.750     3.840    -0.433  H    
     51 H          -0.343     2.879    -1.438  H    
     52 H           1.902     1.856     0.390  H    
     53 H           0.157     1.628     0.593  H    
     54 H           0.104     0.334    -1.395  H    
@<TRIPOS>BOND
     1    1    5 2
     2    1    2 1
     3    2    3 2
     4    3    4 1
     5    3    6 1
     6    4    5 1
     7    6    8 2
     8    6    7 1
     9    8   13 1
    10    8    9 1
    11    9   10 1
    12    9   29 2
    13   10   11 2
    14   10   12 1
    15   12   13 1
    16   12   21 1
    17   13   14 1
    18   14   19 ar
    19   14   15 ar
    20   15   16 ar
    21   16   17 ar
    22   17   18 ar
    23   17   20 1
    24   18   19 ar
    25   21   22 1
    26   22   23 1
    27   23   30 1
    28   24   25 1
    29   24   30 1
    30   25   26 1
    31   26   27 1
    32   27   28 1
    33   28   30 1
    34    1   31 1
    35    2   32 1
    36    5   33 1
    37    7   34 1
    38   13   35 1
    39   15   36 1
    40   16   37 1
    41   18   38 1
    42   19   39 1
    43   21   40 1
    44   21   41 1
    45   22   42 1
    46   22   43 1
    47   23   44 1
    48   23   45 1
    49   24   46 1
    50   24   47 1
    51   25   48 1
    52   25   49 1
    53   27   50 1
    54   27   51 1
    55   28   52 1
    56   28   53 1
    57   30   54 1
@<TRIPOS>MOLECULE
ZINC00910098
 74 79 0 0 0
SMALL
NO_CHARGES


@<TRIPOS>ATOM
      1 C           7.240    -4.141     3.375  C    
      2 C           7.499    -3.295     4.576  C    
      3 C           8.587    -2.395     4.551  C    
      4 C           8.871    -1.568     5.649  C    
      5 C           8.091    -1.617     6.822  C    
      6 C           6.996    -2.520     6.865  C    
      7 C           6.689    -3.354     5.747  C    
      8 C           5.567    -4.192     5.870  C    
      9 C           4.775    -4.223     6.970  C    
     10 C           5.154    -3.438     8.045  C    
     11 O           4.569    -3.471     9.118  O    
     12 N           6.200    -2.623     7.977  N    
     13 C           3.547    -5.054     7.030  C    
     14 C           3.864    -6.276     7.826  C    
     15 N           3.322    -6.529     9.022  N    
     16 N           3.749    -7.649     9.389  N    
     17 N           4.500    -8.127     8.547  N    
     18 N           4.630    -7.349     7.558  N    
     19 C           5.429    -7.596     6.390  C    
     20 C           6.103    -8.923     6.324  C    
     21 C           7.106    -9.259     7.264  C    
     22 C           7.787   -10.490     7.177  C    
     23 C           7.476   -11.406     6.153  C    
     24 C           6.485   -11.072     5.205  C    
     25 C           5.794    -9.849     5.297  C    
     26 O           8.212   -12.558     6.050  O    
     27 C           7.500   -13.762     6.393  C    
     28 C           2.372    -4.115     5.012  C    
     29 C           2.013    -4.441     3.543  C    
     30 N           1.290    -5.675     3.277  N    
     31 C           1.155    -6.646     4.358  C    
     32 C           1.712    -6.298     5.771  C    
     33 C           0.833    -5.967     1.993  C    
     34 C           1.108    -5.122     0.868  C    
     35 C           0.657    -5.419    -0.432  C    
     36 C          -0.100    -6.579    -0.666  C    
     37 C          -0.397    -7.437     0.406  C    
     38 C           0.063    -7.136     1.702  C    
     39 C           8.469    -0.702     7.930  C    
     40 N           2.864    -5.346     5.709  N    
     41 H           7.297    -5.196     3.652  H    
     42 H           7.959    -3.969     2.572  H    
     43 H           6.244    -3.929     2.980  H    
     44 H           9.182    -2.319     3.723  H    
     45 H           9.668    -0.927     5.587  H    
     46 H           5.328    -4.764     5.102  H    
     47 H           6.415    -2.095     8.760  H    
     48 H           2.803    -4.493     7.607  H    
     49 H           4.793    -7.465     5.512  H    
     50 H           6.211    -6.835     6.343  H    
     51 H           7.357    -8.604     8.008  H    
     52 H           8.517   -10.712     7.857  H    
     53 H           6.266   -11.716     4.440  H    
     54 H           5.080    -9.636     4.595  H    
     55 H           7.038   -13.697     7.385  H    
     56 H           8.216   -14.585     6.403  H    
     57 H           6.735   -13.988     5.648  H    
     58 H           3.127    -3.329     4.996  H    
     59 H           1.499    -3.697     5.525  H    
     60 H           1.425    -3.593     3.181  H    
     61 H           2.949    -4.477     2.981  H    
     62 H           0.094    -6.879     4.498  H    
     63 H           1.665    -7.562     4.032  H    
     64 H           0.911    -5.876     6.387  H    
     65 H           2.009    -7.237     6.245  H    
     66 H           1.663    -4.271     0.965  H    
     67 H           0.881    -4.793    -1.211  H    
     68 H          -0.428    -6.798    -1.608  H    
     69 H          -0.948    -8.285     0.241  H    
     70 H          -0.188    -7.801     2.433  H    
     71 H           9.494    -0.917     8.246  H    
     72 H           7.826    -0.786     8.803  H    
     73 H           8.419     0.335     7.582  H    
     74 H           3.562    -5.777     5.100  H    
@<TRIPOS>BOND
     1    1    2 1
     2    2    7 ar
     3    2    3 ar
     4    3    4 ar
     5    4    5 ar
     6    5    6 ar
     7    5   39 1
     8    6   12 1
     9    6    7 ar
    10    7    8 1
    11    8    9 2
    12    9   10 1
    13    9   13 1
    14   10   11 2
    15   10   12 1
    16   13   14 1
    17   13   40 1
    18   14   18 1
    19   14   15 2
    20   15   16 1
    21   16   17 2
    22   17   18 1
    23   18   19 1
    24   19   20 1
    25   20   25 ar
    26   20   21 ar
    27   21   22 ar
    28   22   23 ar
    29   23   24 ar
    30   23   26 1
    31   24   25 ar
    32   26   27 1
    33   28   29 1
    34   28   40 1
    35   29   30 1
    36   30   31 1
    37   30   33 1
    38   31   32 1
    39   32   40 1
    40   33   38 ar
    41   33   34 ar
    42   34   35 ar
    43   35   36 ar
    44   36   37 ar
    45   37   38 ar
    46    1   41 1
    47    1   42 1
    48    1   43 1
    49    3   44 1
    50    4   45 1
    51    8   46 1
    52   12   47 1
    53   13   48 1
    54   19   49 1
    55   19   50 1
    56   21   51 1
    57   22   52 1
    58   24   53 1
    59   25   54 1
    60   27   55 1
    61   27   56 1
    62   27   57 1
    63   28   58 1
    64   28   59 1
    65   29   60 1
    66   29   61 1
    67   31   62 1
    68   31   63 1
    69   32   64 1
    70   32   65 1
    71   34   66 1
    72   35   67 1
    73   36   68 1
    74   37   69 1
    75   38   70 1
    76   39   71 1
    77   39   72 1
    78   39   73 1
    79   40   74 1
@<TRIPOS>MOLECULE
ZINC00913015
 68 73 0 0 0
SMALL
NO_CHARGES


@<TRIPOS>ATOM
      1 C           9.030     6.293     0.134  C    
      2 C           8.383     4.954    -0.298  C    
      3 C           6.316     3.558    -0.383  C    
      4 C           4.826     3.427     0.080  C    
      5 C           5.630     4.064     2.304  C    
      6 C           6.933     4.698     1.744  C    
      7 C           3.870     5.530     1.132  C    
      8 C           2.569     5.592     0.414  C    
      9 C           2.257     6.732    -0.259  C    
     10 C           1.037     6.908    -0.913  C    
     11 C           0.700     8.105    -1.588  C    
     12 C          -0.552     8.200    -2.216  C    
     13 C          -1.463     7.151    -2.171  C    
     14 C          -1.156     5.954    -1.499  C    
     15 C           0.103     5.832    -0.868  C    
     16 N           0.450     4.702    -0.188  N    
     17 C           1.621     4.577     0.430  C    
     18 O           1.773     3.526     1.031  O    
     19 O          -2.605     7.463    -2.807  O    
     20 C          -2.267     8.721    -3.421  C    
     21 O          -1.038     9.256    -2.894  O    
     22 C           3.722     6.349     2.366  C    
     23 N           4.288     7.555     2.508  N    
     24 N           3.955     7.991     3.644  N    
     25 N           3.243     7.180     4.227  N    
     26 N           3.059     6.144     3.518  N    
     27 C           2.276     5.007     3.915  C    
     28 C           2.025     4.905     5.376  C    
     29 C           3.111     4.765     6.277  C    
     30 C           2.895     4.696     7.666  C    
     31 C           1.579     4.718     8.184  C    
     32 C           0.494     4.850     7.292  C    
     33 C           0.713     4.954     5.905  C    
     34 O           1.316     4.688     9.532  O    
     35 C           1.629     3.438    10.180  C    
     36 N           7.001     4.731     0.244  N    
     37 N           4.476     4.159     1.352  N    
     38 H           8.361     7.124    -0.098  H    
     39 H           9.969     6.436    -0.405  H    
     40 H           9.246     6.292     1.205  H    
     41 H           8.336     4.968    -1.393  H    
     42 H           9.041     4.130    -0.006  H    
     43 H           6.852     2.642    -0.115  H    
     44 H           6.330     3.646    -1.472  H    
     45 H           4.171     3.731    -0.744  H    
     46 H           4.612     2.366     0.249  H    
     47 H           5.813     3.003     2.498  H    
     48 H           5.389     4.498     3.276  H    
     49 H           6.989     5.728     2.106  H    
     50 H           7.784     4.148     2.162  H    
     51 H           4.601     6.059     0.509  H    
     52 H           2.902     7.487    -0.276  H    
     53 H           1.345     8.898    -1.620  H    
     54 H          -1.838     5.193    -1.466  H    
     55 H          -0.189     3.969    -0.142  H    
     56 H          -2.157     8.573    -4.499  H    
     57 H          -3.072     9.438    -3.251  H    
     58 H           1.334     5.037     3.363  H    
     59 H           2.787     4.089     3.621  H    
     60 H           4.070     4.723     5.921  H    
     61 H           3.691     4.634     8.306  H    
     62 H          -0.464     4.877     7.658  H    
     63 H          -0.095     5.058     5.284  H    
     64 H           1.193     2.585     9.650  H    
     65 H           1.213     3.470    11.187  H    
     66 H           2.714     3.308    10.264  H    
     67 H           6.460     5.548    -0.044  H    
     68 H           3.741     3.611     1.793  H    
@<TRIPOS>BOND
     1    1    2 1
     2    2   36 1
     3    3    4 1
     4    3   36 1
     5    4   37 1
     6    5    6 1
     7    5   37 1
     8    6   36 1
     9    7    8 1
    10    7   22 1
    11    7   37 1
    12    8   17 1
    13    8    9 2
    14    9   10 1
    15   10   15 ar
    16   10   11 ar
    17   11   12 ar
    18   12   21 1
    19   12   13 ar
    20   13   14 ar
    21   13   19 1
    22   14   15 ar
    23   15   16 1
    24   16   17 1
    25   17   18 2
    26   19   20 1
    27   20   21 1
    28   22   26 1
    29   22   23 2
    30   23   24 1
    31   24   25 2
    32   25   26 1
    33   26   27 1
    34   27   28 1
    35   28   33 ar
    36   28   29 ar
    37   29   30 ar
    38   30   31 ar
    39   31   32 ar
    40   31   34 1
    41   32   33 ar
    42   34   35 1
    43    1   38 1
    44    1   39 1
    45    1   40 1
    46    2   41 1
    47    2   42 1
    48    3   43 1
    49    3   44 1
    50    4   45 1
    51    4   46 1
    52    5   47 1
    53    5   48 1
    54    6   49 1
    55    6   50 1
    56    7   51 1
    57    9   52 1
    58   11   53 1
    59   14   54 1
    60   16   55 1
    61   20   56 1
    62   20   57 1
    63   27   58 1
    64   27   59 1
    65   29   60 1
    66   30   61 1
    67   32   62 1
    68   33   63 1
    69   35   64 1
    70   35   65 1
    71   35   66 1
    72   36   67 1
    73   37   68 1
@<TRIPOS>MOLECULE
ZINC00913777
 54 57 0 0 0
SMALL
NO_CHARGES


@<TRIPOS>ATOM
      1 C           7.698    -3.430    -2.027  C    
      2 C           6.508    -3.076    -1.220  C    
      3 C           6.487    -3.270     0.180  C    
      4 C           5.356    -2.917     0.939  C    
      5 C           4.226    -2.352     0.308  C    
      6 C           3.094    -1.943     1.016  C    
      7 C           2.043    -1.338     0.406  C    
      8 C           2.079    -1.201    -0.973  C    
      9 O           1.148    -0.715    -1.600  O    
     10 N           3.135    -1.598    -1.684  N    
     11 C           4.238    -2.157    -1.096  C    
     12 C           5.368    -2.522    -1.851  C    
     13 C           0.922    -0.813     1.200  C    
     14 N           0.905     0.634     1.254  N    
     15 C           1.951     1.352     1.952  C    
     16 C           2.700     2.275     1.068  C    
     17 C           2.829     3.667     1.203  C    
     18 C           3.589     4.291     0.200  C    
     19 C           4.095     3.419    -0.767  C    
     20 S           3.582     1.833    -0.346  S    
     21 S          -0.535     1.475     0.926  S    
     22 O          -1.505     0.610     0.007  O    
     23 O          -1.340     1.746     2.274  O    
     24 C          -0.299     2.933    -0.000  C    
     25 C          -0.569     4.202     0.548  C    
     26 C          -0.313     5.361    -0.205  C    
     27 C           0.229     5.257    -1.500  C    
     28 C           0.524     3.996    -2.084  C    
     29 C           0.228     2.843    -1.306  C    
     30 C           1.107     3.873    -3.363  C    
     31 O           1.359     2.759    -3.817  O    
     32 C           1.472     5.000    -4.209  C    
     33 H           7.425    -4.177    -2.776  H    
     34 H           8.504    -3.841    -1.413  H    
     35 H           8.075    -2.539    -2.534  H    
     36 H           7.299    -3.667     0.661  H    
     37 H           5.368    -3.064     1.951  H    
     38 H           3.084    -2.066     2.003  H    
     39 H           3.123    -1.487    -2.650  H    
     40 H           5.365    -2.375    -2.868  H    
     41 H           0.002    -1.230     0.782  H    
     42 H           0.955    -1.173     2.232  H    
     43 H           1.507     1.899     2.791  H    
     44 H           2.678     0.663     2.390  H    
     45 H           2.397     4.191     1.973  H    
     46 H           3.753     5.302     0.179  H    
     47 H           4.667     3.673    -1.572  H    
     48 H          -0.937     4.296     1.499  H    
     49 H          -0.505     6.279     0.196  H    
     50 H           0.416     6.125    -2.008  H    
     51 H           0.424     1.909    -1.684  H    
     52 H           0.582     5.585    -4.447  H    
     53 H           1.926     4.678    -5.149  H    
     54 H           2.194     5.632    -3.688  H    
@<TRIPOS>BOND
     1    1    2 1
     2    2   12 ar
     3    2    3 ar
     4    3    4 ar
     5    4    5 ar
     6    5   11 ar
     7    5    6 1
     8    6    7 2
     9    7    8 1
    10    7   13 1
    11    8    9 2
    12    8   10 1
    13   10   11 1
    14   11   12 ar
    15   13   14 1
    16   14   15 1
    17   14   21 1
    18   15   16 1
    19   16   20 1
    20   16   17 2
    21   17   18 1
    22   18   19 2
    23   19   20 1
    24   21   22 2
    25   21   23 2
    26   21   24 1
    27   24   29 ar
    28   24   25 ar
    29   25   26 ar
    30   26   27 ar
    31   27   28 ar
    32   28   29 ar
    33   28   30 1
    34   30   31 2
    35   30   32 1
    36    1   33 1
    37    1   34 1
    38    1   35 1
    39    3   36 1
    40    4   37 1
    41    6   38 1
    42   10   39 1
    43   12   40 1
    44   13   41 1
    45   13   42 1
    46   15   43 1
    47   15   44 1
    48   17   45 1
    49   18   46 1
    50   19   47 1
    51   25   48 1
    52   26   49 1
    53   27   50 1
    54   29   51 1
    55   32   52 1
    56   32   53 1
    57   32   54 1
@<TRIPOS>MOLECULE
ZINC00915069
 51 54 0 0 0
SMALL
NO_CHARGES


@<TRIPOS>ATOM
      1 C          -0.717    -2.488     0.286  C    
      2 C           0.426    -1.937     1.010  C    
      3 C           0.972    -0.699     0.796  C    
      4 C           2.107    -0.257     1.665  C    
      5 N           2.599    -1.271     2.557  N    
      6 C           2.019    -2.459     2.671  C    
      7 N           2.711    -3.126     3.590  N    
      8 N           3.631    -2.335     3.956  N    
      9 N           3.572    -1.261     3.361  N    
     10 N           0.941    -2.778     1.932  N    
     11 C           1.745     0.944     2.488  C    
     12 C           0.689     0.886     3.429  C    
     13 C           0.342     2.014     4.193  C    
     14 C           1.039     3.226     4.027  C    
     15 C           2.120     3.291     3.123  C    
     16 C           2.455     2.160     2.351  C    
     17 O           2.794     4.467     2.940  O    
     18 C           3.962     4.591     3.766  C    
     19 O           0.707     4.315     4.785  O    
     20 C          -0.315     5.141     4.195  C    
     21 C          -0.576     6.289     5.095  C    
     22 C          -0.345     7.621     4.677  C    
     23 C          -0.589     8.698     5.549  C    
     24 C          -1.071     8.458     6.849  C    
     25 C          -1.310     7.139     7.275  C    
     26 C          -1.064     6.062     6.403  C    
     27 C           0.545     0.201    -0.205  C    
     28 O          -0.551     0.003    -0.976  O    
     29 O           1.234     1.354    -0.428  O    
     30 C           0.941     2.380    -1.378  C    
     31 H          -0.990    -3.491     0.625  H    
     32 H          -0.487    -2.559    -0.779  H    
     33 H          -1.591    -1.852     0.433  H    
     34 H           2.951    -0.031     1.002  H    
     35 H           0.541    -3.654     2.053  H    
     36 H           0.162     0.019     3.561  H    
     37 H          -0.425     1.953     4.866  H    
     38 H           3.225     2.233     1.680  H    
     39 H           3.703     4.557     4.827  H    
     40 H           4.421     5.558     3.557  H    
     41 H           4.694     3.811     3.539  H    
     42 H           0.008     5.487     3.209  H    
     43 H          -1.244     4.580     4.069  H    
     44 H           0.010     7.818     3.738  H    
     45 H          -0.416     9.657     5.238  H    
     46 H          -1.249     9.241     7.482  H    
     47 H          -1.660     6.965     8.220  H    
     48 H          -1.241     5.109     6.731  H    
     49 H           0.975     1.974    -2.390  H    
     50 H           1.689     3.169    -1.286  H    
     51 H          -0.048     2.801    -1.183  H    
@<TRIPOS>BOND
     1    1    2 1
     2    2   10 1
     3    2    3 2
     4    3    4 1
     5    3   27 1
     6    4    5 1
     7    4   11 1
     8    5    9 1
     9    5    6 1
    10    6    7 2
    11    6   10 1
    12    7    8 1
    13    8    9 2
    14   11   16 ar
    15   11   12 ar
    16   12   13 ar
    17   13   14 ar
    18   14   15 ar
    19   14   19 1
    20   15   16 ar
    21   15   17 1
    22   17   18 1
    23   19   20 1
    24   20   21 1
    25   21   26 ar
    26   21   22 ar
    27   22   23 ar
    28   23   24 ar
    29   24   25 ar
    30   25   26 ar
    31   27   28 2
    32   27   29 1
    33   29   30 1
    34    1   31 1
    35    1   32 1
    36    1   33 1
    37    4   34 1
    38   10   35 1
    39   12   36 1
    40   13   37 1
    41   16   38 1
    42   18   39 1
    43   18   40 1
    44   18   41 1
    45   20   42 1
    46   20   43 1
    47   22   44 1
    48   23   45 1
    49   24   46 1
    50   25   47 1
    51   26   48 1
    52   30   49 1
    53   30   50 1
    54   30   51 1
@<TRIPOS>MOLECULE
ZINC00917146
 50 53 0 0 0
SMALL
NO_CHARGES


@<TRIPOS>ATOM
      1 C           3.111   -11.779    -2.580  C    
      2 O           4.006   -10.664    -2.720  O    
      3 C           3.673    -9.582    -1.948  C    
      4 C           4.064    -9.537    -0.595  C    
      5 C           3.796    -8.400     0.187  C    
      6 C           3.151    -7.268    -0.371  C    
      7 C           2.785    -7.318    -1.739  C    
      8 C           3.028    -8.467    -2.524  C    
      9 O           2.727    -8.480    -3.862  O    
     10 C           1.324    -8.597    -4.155  C    
     11 C           2.909    -6.140     0.410  C    
     12 N           2.336    -5.069     0.012  N    
     13 N           2.299    -4.272     0.926  N    
     14 C           2.845    -4.811     1.941  C    
     15 O           3.266    -6.045     1.690  O    
     16 S           3.027    -3.980     3.428  S    
     17 C           4.057    -5.169     4.342  C    
     18 C           5.432    -5.380     3.879  C    
     19 O           5.773    -4.714     2.906  O    
     20 N           6.293    -6.285     4.404  N    
     21 C           5.899    -7.255     5.415  C    
     22 C           5.885    -8.652     4.748  C    
     23 C           7.270    -8.989     4.126  C    
     24 C           8.065    -7.805     3.692  C    
     25 C           7.579    -6.479     3.891  C    
     26 C           8.446    -5.395     3.600  C    
     27 C           9.726    -5.611     3.062  C    
     28 C          10.175    -6.919     2.823  C    
     29 C           9.353    -8.012     3.146  C    
     30 H           3.084   -12.147    -1.551  H    
     31 H           3.471   -12.585    -3.219  H    
     32 H           2.100   -11.518    -2.898  H    
     33 H           4.554   -10.332    -0.178  H    
     34 H           4.092    -8.407     1.166  H    
     35 H           2.345    -6.509    -2.185  H    
     36 H           0.882    -9.477    -3.681  H    
     37 H           1.211    -8.700    -5.235  H    
     38 H           0.780    -7.704    -3.839  H    
     39 H           4.103    -4.809     5.372  H    
     40 H           3.518    -6.117     4.338  H    
     41 H           6.624    -7.245     6.236  H    
     42 H           4.926    -7.079     5.872  H    
     43 H           5.610    -9.414     5.482  H    
     44 H           5.124    -8.655     3.961  H    
     45 H           7.857    -9.527     4.875  H    
     46 H           7.121    -9.658     3.274  H    
     47 H           8.156    -4.433     3.791  H    
     48 H          10.334    -4.815     2.851  H    
     49 H          11.108    -7.077     2.436  H    
     50 H           9.707    -8.960     2.999  H    
@<TRIPOS>BOND
     1    1    2 1
     2    2    3 1
     3    3    8 ar
     4    3    4 ar
     5    4    5 ar
     6    5    6 ar
     7    6    7 ar
     8    6   11 1
     9    7    8 ar
    10    8    9 1
    11    9   10 1
    12   11   15 1
    13   11   12 2
    14   12   13 1
    15   13   14 2
    16   14   15 1
    17   14   16 1
    18   16   17 1
    19   17   18 1
    20   18   19 2
    21   18   20 1
    22   20   25 1
    23   20   21 1
    24   21   22 1
    25   22   23 1
    26   23   24 1
    27   24   29 ar
    28   24   25 ar
    29   25   26 ar
    30   26   27 ar
    31   27   28 ar
    32   28   29 ar
    33    1   30 1
    34    1   31 1
    35    1   32 1
    36    4   33 1
    37    5   34 1
    38    7   35 1
    39   10   36 1
    40   10   37 1
    41   10   38 1
    42   17   39 1
    43   17   40 1
    44   21   41 1
    45   21   42 1
    46   22   43 1
    47   22   44 1
    48   23   45 1
    49   23   46 1
    50   26   47 1
    51   27   48 1
    52   28   49 1
    53   29   50 1
@<TRIPOS>MOLECULE
ZINC00929115
 50 53 0 0 0
SMALL
NO_CHARGES


@<TRIPOS>ATOM
      1 C          -0.605     9.844    -1.511  C    
      2 O          -0.763     8.692    -0.672  O    
      3 C          -0.160     8.623     0.565  C    
      4 C           0.509     9.676     1.236  C    
      5 C           1.078     9.473     2.504  C    
      6 C           1.002     8.218     3.162  C    
      7 C           0.327     7.171     2.484  C    
      8 C          -0.239     7.372     1.212  C    
      9 C           1.570     8.046     4.459  C    
     10 C           1.798     6.829     5.116  C    
     11 S           2.482     7.205     6.641  S    
     12 C           2.469     8.920     6.449  C    
     13 N           1.958     9.115     5.208  N    
     14 N           2.901     9.906     7.311  N    
     15 C           3.643     9.517     8.514  C    
     16 C           2.834     9.735     9.824  C    
     17 C           1.543     8.902     9.923  C    
     18 C           1.303     8.816    11.434  C    
     19 C           2.673     9.170    12.045  C    
     20 O           3.600     9.327    10.963  O    
     21 C           2.701    11.224     7.061  C    
     22 O           3.316    12.075     7.696  O    
     23 C           1.758    11.768     6.187  C    
     24 C           2.145    12.692     5.189  C    
     25 C           1.193    13.231     4.303  C    
     26 C          -0.158    12.865     4.415  C    
     27 C          -0.561    11.966     5.417  C    
     28 C           0.389    11.422     6.300  C    
     29 H          -1.057    10.725    -1.054  H    
     30 H          -1.114     9.653    -2.456  H    
     31 H           0.448    10.036    -1.722  H    
     32 H           0.594    10.599     0.806  H    
     33 H           1.552    10.265     2.945  H    
     34 H           0.224     6.249     2.911  H    
     35 H          -0.722     6.596     0.752  H    
     36 H           1.617     5.883     4.776  H    
     37 H           3.967     8.474     8.499  H    
     38 H           4.573    10.090     8.571  H    
     39 H           2.600    10.801     9.927  H    
     40 H           0.713     9.381     9.401  H    
     41 H           1.696     7.899     9.518  H    
     42 H           0.547     9.542    11.744  H    
     43 H           0.977     7.814    11.723  H    
     44 H           2.618    10.103    12.613  H    
     45 H           3.030     8.377    12.705  H    
     46 H           3.126    12.960     5.082  H    
     47 H           1.486    13.884     3.574  H    
     48 H          -0.850    13.260     3.774  H    
     49 H          -1.545    11.705     5.502  H    
     50 H           0.074    10.773     7.025  H    
@<TRIPOS>BOND
     1    1    2 1
     2    2    3 1
     3    3    8 ar
     4    3    4 ar
     5    4    5 ar
     6    5    6 ar
     7    6    7 ar
     8    6    9 1
     9    7    8 ar
    10    9   13 1
    11    9   10 2
    12   10   11 1
    13   11   12 1
    14   12   13 2
    15   12   14 1
    16   14   15 1
    17   14   21 1
    18   15   16 1
    19   16   20 1
    20   16   17 1
    21   17   18 1
    22   18   19 1
    23   19   20 1
    24   21   22 2
    25   21   23 1
    26   23   28 ar
    27   23   24 ar
    28   24   25 ar
    29   25   26 ar
    30   26   27 ar
    31   27   28 ar
    32    1   29 1
    33    1   30 1
    34    1   31 1
    35    4   32 1
    36    5   33 1
    37    7   34 1
    38    8   35 1
    39   10   36 1
    40   15   37 1
    41   15   38 1
    42   16   39 1
    43   17   40 1
    44   17   41 1
    45   18   42 1
    46   18   43 1
    47   19   44 1
    48   19   45 1
    49   24   46 1
    50   25   47 1
    51   26   48 1
    52   27   49 1
    53   28   50 1
@<TRIPOS>MOLECULE
ZINC00936972
 60 63 0 0 0
SMALL
NO_CHARGES


@<TRIPOS>ATOM
      1 C           3.687     1.763    -6.463  C    
      2 C           4.856     1.218    -5.719  C    
      3 C           4.919     1.016    -4.302  C    
      4 C           6.164     0.531    -3.871  C    
      5 N           6.460     0.263    -2.580  N    
      6 C           5.514     0.471    -1.638  C    
      7 N           4.268     0.947    -1.970  N    
      8 C           3.974     1.202    -3.269  C    
      9 O           2.846     1.580    -3.554  O    
     10 C           3.292     1.149    -0.908  C    
     11 C           3.017     2.593    -0.664  C    
     12 C           1.746     3.154    -0.912  C    
     13 C           1.513     4.522    -0.689  C    
     14 C           2.526     5.392    -0.196  C    
     15 C           3.794     4.801     0.053  C    
     16 C           4.036     3.435    -0.175  C    
     17 C           2.223     6.870     0.025  C    
     18 C           1.831     7.532    -1.340  C    
     19 C           1.041     7.030     1.041  C    
     20 C           3.429     7.703     0.599  C    
     21 S           7.186     0.338    -5.227  S    
     22 C           6.053     0.875    -6.409  C    
     23 C           6.367     0.911    -7.768  C    
     24 O           5.491     1.141    -8.588  O    
     25 N           7.628     0.783    -8.172  N    
     26 C           8.114     0.823    -9.453  C    
     27 C           7.488     0.139   -10.521  C    
     28 C           8.019     0.203   -11.821  C    
     29 C           9.173     0.959   -12.072  C    
     30 C           9.813     1.631   -11.019  C    
     31 C           9.316     1.534    -9.697  C    
     32 O           9.908     2.205    -8.654  O    
     33 C          11.244     1.784    -8.322  C    
     34 H           3.995     2.637    -7.039  H    
     35 H           2.866     2.082    -5.836  H    
     36 H           3.305     1.002    -7.141  H    
     37 H           5.768     0.268    -0.671  H    
     38 H           2.376     0.608    -1.167  H    
     39 H           3.616     0.722     0.046  H    
     40 H           0.984     2.571    -1.265  H    
     41 H           0.578     4.879    -0.892  H    
     42 H           4.575     5.355     0.401  H    
     43 H           4.969     3.058     0.010  H    
     44 H           2.642     7.425    -2.061  H    
     45 H           1.629     8.599    -1.215  H    
     46 H           0.936     7.076    -1.767  H    
     47 H           0.118     6.588     0.657  H    
     48 H           0.835     8.085     1.242  H    
     49 H           1.280     6.543     1.990  H    
     50 H           3.745     7.313     1.570  H    
     51 H           3.154     8.751     0.744  H    
     52 H           4.283     7.681    -0.085  H    
     53 H           8.297     0.764    -7.470  H    
     54 H           6.653    -0.425   -10.359  H    
     55 H           7.563    -0.298   -12.583  H    
     56 H           9.549     1.018   -13.020  H    
     57 H          10.644     2.186   -11.220  H    
     58 H          11.342     0.692    -8.279  H    
     59 H          11.497     2.189    -7.339  H    
     60 H          11.952     2.187    -9.051  H    
@<TRIPOS>BOND
     1    1    2 1
     2    2   22 2
     3    2    3 1
     4    3    8 1
     5    3    4 2
     6    4    5 1
     7    4   21 1
     8    5    6 2
     9    6    7 1
    10    7    8 1
    11    7   10 1
    12    8    9 2
    13   10   11 1
    14   11   16 ar
    15   11   12 ar
    16   12   13 ar
    17   13   14 ar
    18   14   15 ar
    19   14   17 1
    20   15   16 ar
    21   17   18 1
    22   17   19 1
    23   17   20 1
    24   21   22 1
    25   22   23 1
    26   23   24 2
    27   23   25 1
    28   25   26 1
    29   26   31 ar
    30   26   27 ar
    31   27   28 ar
    32   28   29 ar
    33   29   30 ar
    34   30   31 ar
    35   31   32 1
    36   32   33 1
    37    1   34 1
    38    1   35 1
    39    1   36 1
    40    6   37 1
    41   10   38 1
    42   10   39 1
    43   12   40 1
    44   13   41 1
    45   15   42 1
    46   16   43 1
    47   18   44 1
    48   18   45 1
    49   18   46 1
    50   19   47 1
    51   19   48 1
    52   19   49 1
    53   20   50 1
    54   20   51 1
    55   20   52 1
    56   25   53 1
    57   27   54 1
    58   28   55 1
    59   29   56 1
    60   30   57 1
    61   33   58 1
    62   33   59 1
    63   33   60 1
@<TRIPOS>MOLECULE
ZINC00938237
 49 52 0 0 0
SMALL
NO_CHARGES


@<TRIPOS>ATOM
      1 C           4.143    -4.631    -3.529  C    
      2 C           4.517    -3.335    -3.941  C    
      3 C           4.947    -2.390    -2.988  C    
      4 C           5.017    -2.733    -1.613  C    
      5 C           4.638    -4.038    -1.213  C    
      6 C           4.201    -4.980    -2.164  C    
      7 C           5.467    -1.731    -0.613  C    
      8 N           4.419    -0.791    -0.312  N    
      9 C           4.216     0.378    -0.895  C    
     10 O           4.950     0.896    -1.726  O    
     11 C           3.138     0.964    -0.346  C    
     12 C           2.724     0.167     0.639  C    
     13 C           3.488    -0.931     0.615  C    
     14 O           3.351    -1.900     1.352  O    
     15 S           1.357     0.426     1.639  S    
     16 C           2.237     0.662     3.203  C    
     17 C           1.274     1.003     4.260  C    
     18 C           0.897     0.195     5.330  C    
     19 C          -0.023     0.915     6.075  C    
     20 C          -0.182     2.144     5.443  C    
     21 O           0.610     2.185     4.345  O    
     22 N           2.604     2.158    -0.614  N    
     23 C           2.350     2.727    -1.825  C    
     24 C           2.465     2.066    -3.077  C    
     25 C           2.141     2.731    -4.274  C    
     26 C           1.682     4.060    -4.241  C    
     27 C           1.535     4.745    -3.007  C    
     28 C           1.872     4.057    -1.814  C    
     29 C           1.036     6.150    -2.924  C    
     30 F          -0.097     6.202    -2.147  F    
     31 F           1.995     6.952    -2.353  F    
     32 F           0.713     6.709    -4.141  F    
     33 H           3.821    -5.318    -4.220  H    
     34 H           4.469    -3.082    -4.932  H    
     35 H           5.215    -1.454    -3.305  H    
     36 H           4.669    -4.308    -0.226  H    
     37 H           3.921    -5.922    -1.866  H    
     38 H           5.784    -2.229     0.308  H    
     39 H           6.352    -1.214    -0.993  H    
     40 H           2.767    -0.252     3.475  H    
     41 H           2.962     1.477     3.109  H    
     42 H           1.231    -0.750     5.527  H    
     43 H          -0.493     0.600     6.929  H    
     44 H          -0.800     2.895     5.757  H    
     45 H           2.303     2.664     0.156  H    
     46 H           2.756     1.087    -3.128  H    
     47 H           2.229     2.242    -5.168  H    
     48 H           1.452     4.521    -5.126  H    
     49 H           1.765     4.539    -0.915  H    
@<TRIPOS>BOND
     1    1    6 ar
     2    1    2 ar
     3    2    3 ar
     4    3    4 ar
     5    4    5 ar
     6    4    7 1
     7    5    6 ar
     8    7    8 1
     9    8   13 1
    10    8    9 1
    11    9   10 2
    12    9   11 1
    13   11   12 2
    14   11   22 1
    15   12   13 1
    16   12   15 1
    17   13   14 2
    18   15   16 1
    19   16   17 1
    20   17   21 1
    21   17   18 2
    22   18   19 1
    23   19   20 2
    24   20   21 1
    25   22   23 1
    26   23   28 ar
    27   23   24 ar
    28   24   25 ar
    29   25   26 ar
    30   26   27 ar
    31   27   28 ar
    32   27   29 1
    33   29   30 1
    34   29   31 1
    35   29   32 1
    36    1   33 1
    37    2   34 1
    38    3   35 1
    39    5   36 1
    40    6   37 1
    41    7   38 1
    42    7   39 1
    43   16   40 1
    44   16   41 1
    45   18   42 1
    46   19   43 1
    47   20   44 1
    48   22   45 1
    49   24   46 1
    50   25   47 1
    51   26   48 1
    52   28   49 1
@<TRIPOS>MOLECULE
ZINC00942208
 35 36 0 0 0
SMALL
NO_CHARGES


@<TRIPOS>ATOM
      1 C          -1.538     2.947    -9.350  C    
      2 C          -0.414     2.104    -9.460  C    
      3 C          -0.327     0.938    -8.676  C    
      4 C          -1.360     0.595    -7.771  C    
      5 C          -2.483     1.454    -7.668  C    
      6 C          -2.572     2.621    -8.453  C    
      7 C          -1.260    -0.638    -6.945  C    
      8 C          -1.478    -1.915    -7.791  C    
      9 S          -1.377    -3.420    -6.791  S    
     10 O           0.007    -3.577    -6.026  O    
     11 O          -2.474    -3.321    -5.643  O    
     12 N          -1.760    -4.822    -7.649  N    
     13 C          -1.074    -5.420    -8.603  C    
     14 C           0.145    -4.993    -9.089  C    
     15 C           0.178    -4.155   -10.227  C    
     16 C           1.409    -3.718   -10.752  C    
     17 C           2.616    -4.113   -10.147  C    
     18 C           2.588    -4.949    -9.014  C    
     19 C           1.362    -5.397    -8.484  C    
     20 O           1.407    -6.197    -7.385  O    
     21 Br          1.437    -2.598   -12.241  Br   
     22 H          -1.601     3.794    -9.921  H    
     23 H           0.339     2.342   -10.109  H    
     24 H           0.500     0.341    -8.770  H    
     25 H          -3.253     1.236    -7.027  H    
     26 H          -3.391     3.230    -8.375  H    
     27 H          -0.274    -0.668    -6.474  H    
     28 H          -2.000    -0.618    -6.140  H    
     29 H          -2.460    -1.883    -8.268  H    
     30 H          -0.717    -1.977    -8.572  H    
     31 H          -1.477    -6.228    -9.016  H    
     32 H          -0.689    -3.849   -10.677  H    
     33 H           3.513    -3.800   -10.530  H    
     34 H           3.470    -5.238    -8.584  H    
     35 H           0.476    -6.429    -7.181  H    
@<TRIPOS>BOND
     1    1    6 ar
     2    1    2 ar
     3    2    3 ar
     4    3    4 ar
     5    4    5 ar
     6    4    7 1
     7    5    6 ar
     8    7    8 1
     9    8    9 1
    10    9   10 2
    11    9   11 2
    12    9   12 1
    13   12   13 2
    14   13   14 1
    15   14   19 ar
    16   14   15 ar
    17   15   16 ar
    18   16   17 ar
    19   16   21 1
    20   17   18 ar
    21   18   19 ar
    22   19   20 1
    23    1   22 1
    24    2   23 1
    25    3   24 1
    26    5   25 1
    27    6   26 1
    28    7   27 1
    29    7   28 1
    30    8   29 1
    31    8   30 1
    32   13   31 1
    33   15   32 1
    34   17   33 1
    35   18   34 1
    36   20   35 1
@<TRIPOS>MOLECULE
ZINC00950536
 46 49 0 0 0
SMALL
NO_CHARGES


@<TRIPOS>ATOM
      1 C          -1.194     9.214    15.770  C    
      2 C          -2.505     9.400    16.240  C    
      3 C          -3.592     9.186    15.378  C    
      4 C          -3.375     8.791    14.041  C    
      5 C          -2.055     8.617    13.542  C    
      6 C          -0.972     8.816    14.440  C    
      7 N          -1.901     8.208    12.237  N    
      8 C          -0.847     8.242    11.425  C    
      9 O           0.221     8.754    11.742  O    
     10 C          -0.997     7.700    10.090  C    
     11 O           0.216     7.775     9.318  O    
     12 C           0.403     7.340     8.041  C    
     13 O          -0.647     6.777     7.392  O    
     14 C           1.670     7.459     7.408  C    
     15 C           2.762     8.075     8.083  C    
     16 C           4.024     8.199     7.469  C    
     17 C           4.195     7.695     6.168  C    
     18 C           3.143     7.088     5.494  C    
     19 C           1.875     6.960     6.093  C    
     20 C           3.624     6.710     4.276  C    
     21 O           2.967     6.136     3.418  O    
     22 N           4.907     7.050     4.199  N    
     23 C           5.267     7.655     5.327  C    
     24 O           6.359     8.139     5.585  O    
     25 C           5.719     6.844     3.110  C    
     26 C           5.423     7.515     1.901  C    
     27 C           6.233     7.349     0.766  C    
     28 C           7.354     6.501     0.822  C    
     29 C           7.658     5.817     2.012  C    
     30 C           6.849     5.983     3.156  C    
     31 Cl          7.245     5.095     4.544  Cl   
     32 Cl         -4.748     8.555    13.066  Cl   
     33 H          -0.401     9.352    16.401  H    
     34 H          -2.665     9.684    17.208  H    
     35 H          -4.541     9.316    15.733  H    
     36 H          -0.007     8.652    14.148  H    
     37 H          -2.709     7.864    11.823  H    
     38 H          -1.298     6.651    10.165  H    
     39 H          -1.786     8.253     9.569  H    
     40 H           2.650     8.447     9.029  H    
     41 H           4.803     8.644     7.958  H    
     42 H           1.117     6.508     5.572  H    
     43 H           4.615     8.142     1.848  H    
     44 H           6.013     7.846    -0.098  H    
     45 H           7.944     6.379    -0.002  H    
     46 H           8.471     5.195     2.037  H    
@<TRIPOS>BOND
     1    1    6 ar
     2    1    2 ar
     3    2    3 ar
     4    3    4 ar
     5    4    5 ar
     6    4   32 1
     7    5    6 ar
     8    5    7 1
     9    7    8 1
    10    8    9 2
    11    8   10 1
    12   10   11 1
    13   11   12 1
    14   12   13 2
    15   12   14 1
    16   14   19 ar
    17   14   15 ar
    18   15   16 ar
    19   16   17 ar
    20   17   23 1
    21   17   18 ar
    22   18   19 ar
    23   18   20 1
    24   20   21 2
    25   20   22 1
    26   22   23 1
    27   22   25 1
    28   23   24 2
    29   25   30 ar
    30   25   26 ar
    31   26   27 ar
    32   27   28 ar
    33   28   29 ar
    34   29   30 ar
    35   30   31 1
    36    1   33 1
    37    2   34 1
    38    3   35 1
    39    6   36 1
    40    7   37 1
    41   10   38 1
    42   10   39 1
    43   15   40 1
    44   16   41 1
    45   19   42 1
    46   26   43 1
    47   27   44 1
    48   28   45 1
    49   29   46 1
@<TRIPOS>MOLECULE
ZINC00980014
 50 53 0 0 0
SMALL
NO_CHARGES


@<TRIPOS>ATOM
      1 C           4.935   -12.695   -12.602  C    
      2 O           4.988   -11.717   -11.542  O    
      3 C           6.206   -11.242   -11.113  C    
      4 C           7.393   -12.010   -11.085  C    
      5 C           8.591   -11.459   -10.609  C    
      6 C           8.614   -10.145   -10.110  C    
      7 C           7.430    -9.370   -10.075  C    
      8 C           6.239    -9.913   -10.630  C    
      9 O           5.092    -9.159   -10.677  O    
     10 C           4.949    -8.418   -11.899  C    
     11 C           7.486    -8.092    -9.522  C    
     12 C           6.745    -7.651    -8.481  C    
     13 C           6.819    -6.405    -7.956  C    
     14 O           7.359    -5.482    -8.560  O    
     15 N           6.200    -6.250    -6.792  N    
     16 C           5.602    -7.402    -6.397  C    
     17 N           4.907    -7.737    -5.285  N    
     18 C           4.697    -7.199    -4.061  C    
     19 C           5.766    -6.840    -3.211  C    
     20 C           5.512    -6.356    -1.913  C    
     21 C           4.188    -6.253    -1.448  C    
     22 C           3.120    -6.648    -2.275  C    
     23 C           3.376    -7.138    -3.571  C    
     24 S           5.713    -8.663    -7.573  S    
     25 C           6.079    -4.970    -6.128  C    
     26 C           4.746    -4.380    -6.350  C    
     27 C           4.470    -3.162    -6.972  C    
     28 C           3.092    -3.010    -6.971  C    
     29 C           2.563    -4.136    -6.348  C    
     30 O           3.575    -4.958    -5.980  O    
     31 Br         10.149   -12.478   -10.611  Br   
     32 H           5.580   -12.417   -13.443  H    
     33 H           3.909   -12.761   -12.958  H    
     34 H           5.228   -13.681   -12.225  H    
     35 H           7.394   -12.969   -11.418  H    
     36 H           9.492    -9.770    -9.744  H    
     37 H           5.773    -7.715   -12.040  H    
     38 H           4.020    -7.849   -11.850  H    
     39 H           4.893    -9.086   -12.763  H    
     40 H           8.199    -7.493    -9.876  H    
     41 H           6.733    -6.942    -3.525  H    
     42 H           6.289    -6.091    -1.303  H    
     43 H           4.002    -5.904    -0.503  H    
     44 H           2.158    -6.593    -1.929  H    
     45 H           2.593    -7.431    -4.159  H    
     46 H           6.253    -5.065    -5.063  H    
     47 H           6.840    -4.264    -6.479  H    
     48 H           5.147    -2.505    -7.362  H    
     49 H           2.564    -2.223    -7.352  H    
     50 H           1.569    -4.316    -6.191  H    
@<TRIPOS>BOND
     1    1    2 1
     2    2    3 1
     3    3    8 ar
     4    3    4 ar
     5    4    5 ar
     6    5    6 ar
     7    5   31 1
     8    6    7 ar
     9    7    8 ar
    10    7   11 1
    11    8    9 1
    12    9   10 1
    13   11   12 2
    14   12   24 1
    15   12   13 1
    16   13   14 2
    17   13   15 1
    18   15   16 1
    19   15   25 1
    20   16   17 2
    21   16   24 1
    22   17   18 1
    23   18   23 ar
    24   18   19 ar
    25   19   20 ar
    26   20   21 ar
    27   21   22 ar
    28   22   23 ar
    29   25   26 1
    30   26   30 1
    31   26   27 2
    32   27   28 1
    33   28   29 2
    34   29   30 1
    35    1   32 1
    36    1   33 1
    37    1   34 1
    38    4   35 1
    39    6   36 1
    40   10   37 1
    41   10   38 1
    42   10   39 1
    43   11   40 1
    44   19   41 1
    45   20   42 1
    46   21   43 1
    47   22   44 1
    48   23   45 1
    49   25   46 1
    50   25   47 1
    51   27   48 1
    52   28   49 1
    53   29   50 1
@<TRIPOS>MOLECULE
ZINC00989996
 48 51 0 0 0
SMALL
NO_CHARGES


@<TRIPOS>ATOM
      1 C           5.226    -7.452     0.833  C    
      2 C           4.246    -8.080    -0.093  C    
      3 C           3.312    -9.014     0.406  C    
      4 C           2.370    -9.618    -0.442  C    
      5 C           2.335    -9.310    -1.821  C    
      6 C           3.268    -8.372    -2.321  C    
      7 C           4.221    -7.752    -1.477  C    
      8 N           5.114    -6.837    -1.933  N    
      9 C           5.364    -6.274    -3.097  C    
     10 C           6.385    -5.336    -3.271  C    
     11 C           7.343    -5.096    -2.253  C    
     12 C           8.396    -4.158    -2.400  C    
     13 C           8.484    -3.467    -3.633  C    
     14 C           7.567    -3.701    -4.673  C    
     15 C           6.506    -4.610    -4.485  C    
     16 O           5.623    -4.751    -5.513  O    
     17 O           7.698    -3.000    -5.843  O    
     18 C           8.492    -3.688    -6.831  C    
     19 N           9.287    -3.933    -1.393  N    
     20 O          10.168    -3.117    -1.471  O    
     21 O           9.230    -4.570    -0.259  O    
     22 C           1.394    -9.939    -2.678  C    
     23 N           1.444    -9.965    -4.030  N    
     24 C           0.409   -10.679    -4.482  C    
     25 C           0.011   -11.038    -5.781  C    
     26 C          -1.148   -11.826    -5.934  C    
     27 C          -1.891   -12.237    -4.804  C    
     28 C          -1.475   -11.872    -3.507  C    
     29 C          -0.316   -11.092    -3.369  C    
     30 N           0.308   -10.635    -2.269  N    
     31 H           6.241    -7.675     0.500  H    
     32 H           5.123    -7.813     1.857  H    
     33 H           5.086    -6.370     0.838  H    
     34 H           3.310    -9.269     1.397  H    
     35 H           1.716   -10.295    -0.041  H    
     36 H           3.247    -8.132    -3.316  H    
     37 H           4.794    -6.520    -3.870  H    
     38 H           7.277    -5.616    -1.375  H    
     39 H           9.228    -2.784    -3.788  H    
     40 H           4.757    -4.937    -5.094  H    
     41 H           9.499    -3.891    -6.466  H    
     42 H           8.569    -3.050    -7.710  H    
     43 H           8.020    -4.627    -7.132  H    
     44 H           2.129    -9.556    -4.581  H    
     45 H           0.557   -10.741    -6.590  H    
     46 H          -1.455   -12.099    -6.868  H    
     47 H          -2.730   -12.806    -4.924  H    
     48 H          -2.002   -12.172    -2.684  H    
@<TRIPOS>BOND
     1    1    2 1
     2    2    7 ar
     3    2    3 ar
     4    3    4 ar
     5    4    5 ar
     6    5    6 ar
     7    5   22 1
     8    6    7 ar
     9    7    8 1
    10    8    9 2
    11    9   10 1
    12   10   15 ar
    13   10   11 ar
    14   11   12 ar
    15   12   13 ar
    16   12   19 1
    17   13   14 ar
    18   14   15 ar
    19   14   17 1
    20   15   16 1
    21   17   18 1
    22   19   20 2
    23   19   21 1
    24   22   30 2
    25   22   23 1
    26   23   24 1
    27   24   29 ar
    28   24   25 ar
    29   25   26 ar
    30   26   27 ar
    31   27   28 ar
    32   28   29 ar
    33   29   30 1
    34    1   31 1
    35    1   32 1
    36    1   33 1
    37    3   34 1
    38    4   35 1
    39    6   36 1
    40    9   37 1
    41   11   38 1
    42   13   39 1
    43   16   40 1
    44   18   41 1
    45   18   42 1
    46   18   43 1
    47   23   44 1
    48   25   45 1
    49   26   46 1
    50   27   47 1
    51   28   48 1
@<TRIPOS>MOLECULE
ZINC01014591
 47 49 0 0 0
SMALL
NO_CHARGES


@<TRIPOS>ATOM
      1 C          -1.578    -9.190    -5.731  C    
      2 C          -1.785    -8.049    -4.708  C    
      3 N          -0.532    -7.411    -4.358  N    
      4 C           0.166    -7.663    -3.256  C    
      5 O          -0.208    -8.471    -2.412  O    
      6 C           1.319    -6.964    -3.137  C    
      7 C           2.254    -7.171    -2.182  C    
      8 C           3.451    -6.478    -2.013  C    
      9 C           3.518    -5.065    -2.048  C    
     10 C           4.746    -4.394    -1.903  C    
     11 C           5.933    -5.121    -1.707  C    
     12 C           5.881    -6.528    -1.613  C    
     13 C           4.645    -7.195    -1.765  C    
     14 O           7.019    -7.282    -1.477  O    
     15 C           7.517    -7.350    -0.127  C    
     16 O           7.117    -4.467    -1.615  O    
     17 S           1.542    -5.888    -4.448  S    
     18 C           0.076    -6.489    -5.139  C    
     19 N          -0.460    -6.047    -6.301  N    
     20 C          -0.146    -5.192    -7.313  C    
     21 C          -1.204    -4.820    -8.172  C    
     22 C          -0.987    -3.925    -9.236  C    
     23 C           0.295    -3.390    -9.465  C    
     24 C           1.367    -3.797    -8.646  C    
     25 C           1.150    -4.688    -7.576  C    
     26 O           0.513    -2.540   -10.513  O    
     27 C           0.417    -1.155   -10.142  C    
     28 H          -1.133    -8.808    -6.655  H    
     29 H          -2.539    -9.652    -5.971  H    
     30 H          -0.917    -9.951    -5.310  H    
     31 H          -2.479    -7.314    -5.124  H    
     32 H          -2.279    -8.468    -3.826  H    
     33 H           2.117    -7.946    -1.571  H    
     34 H           2.671    -4.506    -2.166  H    
     35 H           4.773    -3.371    -1.947  H    
     36 H           4.631    -8.216    -1.728  H    
     37 H           7.913    -6.387     0.199  H    
     38 H           8.327    -8.079    -0.107  H    
     39 H           6.746    -7.686     0.572  H    
     40 H           6.904    -3.515    -1.713  H    
     41 H          -2.145    -5.185    -8.017  H    
     42 H          -1.767    -3.658    -9.839  H    
     43 H           2.310    -3.446    -8.833  H    
     44 H           1.953    -4.981    -7.023  H    
     45 H          -0.591    -0.905    -9.795  H    
     46 H           0.630    -0.549   -11.023  H    
     47 H           1.142    -0.898    -9.365  H    
@<TRIPOS>BOND
     1    1    2 1
     2    2    3 1
     3    3   18 1
     4    3    4 1
     5    4    5 2
     6    4    6 1
     7    6    7 2
     8    6   17 1
     9    7    8 1
    10    8   13 ar
    11    8    9 ar
    12    9   10 ar
    13   10   11 ar
    14   11   12 ar
    15   11   16 1
    16   12   13 ar
    17   12   14 1
    18   14   15 1
    19   17   18 1
    20   18   19 2
    21   19   20 1
    22   20   25 ar
    23   20   21 ar
    24   21   22 ar
    25   22   23 ar
    26   23   24 ar
    27   23   26 1
    28   24   25 ar
    29   26   27 1
    30    1   28 1
    31    1   29 1
    32    1   30 1
    33    2   31 1
    34    2   32 1
    35    7   33 1
    36    9   34 1
    37   10   35 1
    38   13   36 1
    39   15   37 1
    40   15   38 1
    41   15   39 1
    42   16   40 1
    43   21   41 1
    44   22   42 1
    45   24   43 1
    46   25   44 1
    47   27   45 1
    48   27   46 1
    49   27   47 1
@<TRIPOS>MOLECULE
ZINC01016185
 56 59 0 0 0
SMALL
NO_CHARGES


@<TRIPOS>ATOM
      1 C           3.290     2.255    -4.405  C    
      2 C           4.546     1.688    -4.956  C    
      3 C           5.783     2.080    -4.391  C    
      4 C           6.993     1.563    -4.873  C    
      5 C           7.007     0.633    -5.932  C    
      6 C           5.774     0.260    -6.515  C    
      7 C           4.542     0.764    -6.040  C    
      8 C           3.276     0.303    -6.672  C    
      9 N           8.188     0.071    -6.357  N    
     10 C           8.589     0.081    -7.649  C    
     11 C           9.869    -0.445    -7.736  C    
     12 C          10.243    -0.788    -6.450  C    
     13 C           9.179    -0.488    -5.603  C    
     14 C           9.228    -0.728    -4.235  C    
     15 C           8.226    -1.188    -3.461  C    
     16 C           7.054    -1.739    -3.836  C    
     17 O           6.876    -2.245    -4.939  O    
     18 N           6.144    -1.774    -2.875  N    
     19 C           6.648    -1.350    -1.730  C    
     20 O           6.037    -1.277    -0.670  O    
     21 S           8.307    -0.981    -1.771  S    
     22 C           4.777    -2.220    -3.070  C    
     23 C           4.610    -3.655    -3.247  C    
     24 O           5.567    -4.404    -3.091  O    
     25 N           3.418    -4.098    -3.629  N    
     26 C           2.992    -5.375    -3.876  C    
     27 C           3.518    -6.536    -3.257  C    
     28 C           3.001    -7.810    -3.560  C    
     29 C           1.936    -7.946    -4.473  C    
     30 C           1.405    -6.798    -5.092  C    
     31 C           1.918    -5.524    -4.782  C    
     32 O           1.463    -9.190    -4.791  O    
     33 C           0.323    -9.582    -4.005  C    
     34 H           2.755     2.800    -5.185  H    
     35 H           3.471     2.945    -3.578  H    
     36 H           2.654     1.454    -4.033  H    
     37 H           5.816     2.747    -3.617  H    
     38 H           7.870     1.866    -4.442  H    
     39 H           5.779    -0.424    -7.276  H    
     40 H           2.653    -0.193    -5.929  H    
     41 H           3.443    -0.402    -7.486  H    
     42 H           2.734     1.156    -7.082  H    
     43 H           8.063     0.455    -8.443  H    
     44 H          10.428    -0.547    -8.583  H    
     45 H          11.134    -1.211    -6.183  H    
     46 H          10.091    -0.520    -3.788  H    
     47 H           4.147    -1.922    -2.227  H    
     48 H           4.376    -1.705    -3.948  H    
     49 H           2.768    -3.404    -3.828  H    
     50 H           4.264    -6.468    -2.563  H    
     51 H           3.395    -8.638    -3.107  H    
     52 H           0.640    -6.887    -5.765  H    
     53 H           1.511    -4.703    -5.238  H    
     54 H           0.564    -9.609    -2.940  H    
     55 H           0.023   -10.584    -4.313  H    
     56 H          -0.522    -8.910    -4.168  H    
@<TRIPOS>BOND
     1    1    2 1
     2    2    7 ar
     3    2    3 ar
     4    3    4 ar
     5    4    5 ar
     6    5    6 ar
     7    5    9 1
     8    6    7 ar
     9    7    8 1
    10    9   13 1
    11    9   10 1
    12   10   11 2
    13   11   12 1
    14   12   13 2
    15   13   14 1
    16   14   15 2
    17   15   21 1
    18   15   16 1
    19   16   17 2
    20   16   18 1
    21   18   19 1
    22   18   22 1
    23   19   20 2
    24   19   21 1
    25   22   23 1
    26   23   24 2
    27   23   25 1
    28   25   26 1
    29   26   31 ar
    30   26   27 ar
    31   27   28 ar
    32   28   29 ar
    33   29   30 ar
    34   29   32 1
    35   30   31 ar
    36   32   33 1
    37    1   34 1
    38    1   35 1
    39    1   36 1
    40    3   37 1
    41    4   38 1
    42    6   39 1
    43    8   40 1
    44    8   41 1
    45    8   42 1
    46   10   43 1
    47   11   44 1
    48   12   45 1
    49   14   46 1
    50   22   47 1
    51   22   48 1
    52   25   49 1
    53   27   50 1
    54   28   51 1
    55   30   52 1
    56   31   53 1
    57   33   54 1
    58   33   55 1
    59   33   56 1
@<TRIPOS>MOLECULE
ZINC01019058
 46 48 0 0 0
SMALL
NO_CHARGES


@<TRIPOS>ATOM
      1 C           0.458    -0.963    -3.835  C    
      2 C           1.531    -1.806    -3.109  C    
      3 N           2.198    -1.057    -2.081  N    
      4 C           3.498    -0.667    -2.021  C    
      5 C           3.667     0.015    -0.809  C    
      6 C           2.403     0.027    -0.229  C    
      7 N           1.560    -0.644    -1.023  N    
      8 C           4.778     0.608    -0.223  C    
      9 C           6.024     0.107    -0.137  C    
     10 C           6.430    -1.145    -0.462  C    
     11 O           5.730    -2.103    -0.156  O    
     12 N           7.623    -1.287    -1.022  N    
     13 C           8.275    -2.433    -1.361  C    
     14 C           7.947    -3.781    -1.237  C    
     15 N           8.975    -4.519    -1.693  N    
     16 N           9.920    -3.724    -2.106  N    
     17 C           9.542    -2.441    -1.927  C    
     18 C          11.176    -4.159    -2.634  C    
     19 C          11.246    -3.940    -4.103  C    
     20 C          10.535    -4.794    -4.982  C    
     21 C          10.599    -4.604    -6.376  C    
     22 C          11.366    -3.548    -6.909  C    
     23 C          12.068    -2.684    -6.044  C    
     24 C          12.013    -2.884    -4.652  C    
     25 F          11.428    -3.373    -8.201  F    
     26 C           4.499    -0.838    -3.101  C    
     27 H          -0.299    -0.616    -3.127  H    
     28 H          -0.037    -1.566    -4.600  H    
     29 H           0.919    -0.098    -4.313  H    
     30 H           1.056    -2.682    -2.654  H    
     31 H           2.239    -2.172    -3.856  H    
     32 H           2.153     0.444     0.669  H    
     33 H           4.613     1.464     0.258  H    
     34 H           6.710     0.694     0.285  H    
     35 H           8.108    -0.466    -1.201  H    
     36 H           7.082    -4.167    -0.856  H    
     37 H          10.100    -1.609    -2.150  H    
     38 H          11.974    -3.621    -2.116  H    
     39 H          11.328    -5.220    -2.419  H    
     40 H           9.973    -5.565    -4.610  H    
     41 H          10.089    -5.237    -6.999  H    
     42 H          12.624    -1.914    -6.429  H    
     43 H          12.529    -2.249    -4.038  H    
     44 H           4.739    -1.899    -3.208  H    
     45 H           5.414    -0.287    -2.897  H    
     46 H           4.087    -0.464    -4.041  H    
@<TRIPOS>BOND
     1    1    2 1
     2    2    3 1
     3    3    7 1
     4    3    4 1
     5    4    5 2
     6    4   26 1
     7    5    6 1
     8    5    8 1
     9    6    7 2
    10    8    9 2
    11    9   10 1
    12   10   11 2
    13   10   12 1
    14   12   13 1
    15   13   17 2
    16   13   14 1
    17   14   15 2
    18   15   16 1
    19   16   17 1
    20   16   18 1
    21   18   19 1
    22   19   24 ar
    23   19   20 ar
    24   20   21 ar
    25   21   22 ar
    26   22   23 ar
    27   22   25 1
    28   23   24 ar
    29    1   27 1
    30    1   28 1
    31    1   29 1
    32    2   30 1
    33    2   31 1
    34    6   32 1
    35    8   33 1
    36    9   34 1
    37   12   35 1
    38   14   36 1
    39   17   37 1
    40   18   38 1
    41   18   39 1
    42   20   40 1
    43   21   41 1
    44   23   42 1
    45   24   43 1
    46   26   44 1
    47   26   45 1
    48   26   46 1
@<TRIPOS>MOLECULE
ZINC01027823
 42 44 0 0 0
SMALL
NO_CHARGES


@<TRIPOS>ATOM
      1 C           4.649   -12.245    -4.102  C    
      2 C           5.967   -12.702    -4.425  C    
      3 C           7.091   -12.081    -3.811  C    
      4 C           6.918   -11.102    -2.800  C    
      5 C           5.600   -10.649    -2.473  C    
      6 C           4.476   -11.215    -3.137  C    
      7 C           3.168   -10.802    -2.818  C    
      8 N           2.782    -9.568    -2.884  N    
      9 N           3.451    -8.538    -3.232  N    
     10 C           2.917    -7.316    -3.270  C    
     11 O           1.740    -7.129    -2.988  O    
     12 C           3.693    -6.241    -3.665  C    
     13 C           4.676    -6.305    -4.661  C    
     14 N           5.171    -5.061    -4.805  N    
     15 N           4.594    -4.239    -3.979  N    
     16 C           3.684    -4.913    -3.217  C    
     17 C           2.864    -4.398    -2.083  C    
     18 F           1.564    -4.231    -2.493  F    
     19 F           2.891    -5.266    -1.024  F    
     20 F           3.311    -3.208    -1.565  F    
     21 C           4.887    -2.902    -4.026  C    
     22 C           6.200    -2.470    -4.368  C    
     23 C           6.492    -1.075    -4.474  C    
     24 C           5.470    -0.103    -4.258  C    
     25 C           4.156    -0.544    -3.926  C    
     26 C           3.864    -1.934    -3.825  C    
     27 N           5.748     1.230    -4.379  N    
     28 O           4.912     2.082    -4.223  O    
     29 O           6.942     1.670    -4.678  O    
     30 C           8.289   -12.552    -4.041  C    
     31 N           9.340   -12.958    -4.237  N    
     32 H           3.832   -12.669    -4.574  H    
     33 H           6.091   -13.464    -5.114  H    
     34 H           7.733   -10.694    -2.308  H    
     35 H           5.477    -9.918    -1.751  H    
     36 H           2.482   -11.482    -2.525  H    
     37 H           4.392    -8.659    -3.472  H    
     38 H           4.971    -7.136    -5.196  H    
     39 H           6.950    -3.160    -4.543  H    
     40 H           7.454    -0.783    -4.710  H    
     41 H           3.398     0.138    -3.760  H    
     42 H           2.899    -2.231    -3.600  H    
@<TRIPOS>BOND
     1    1    6 ar
     2    1    2 ar
     3    2    3 ar
     4    3    4 ar
     5    3   30 1
     6    4    5 ar
     7    5    6 ar
     8    6    7 1
     9    7    8 2
    10    8    9 1
    11    9   10 1
    12   10   11 2
    13   10   12 1
    14   12   16 2
    15   12   13 1
    16   13   14 2
    17   14   15 1
    18   15   16 1
    19   15   21 1
    20   16   17 1
    21   17   18 1
    22   17   19 1
    23   17   20 1
    24   21   26 ar
    25   21   22 ar
    26   22   23 ar
    27   23   24 ar
    28   24   25 ar
    29   24   27 1
    30   25   26 ar
    31   27   28 2
    32   27   29 1
    33   30   31 3
    34    1   32 1
    35    2   33 1
    36    4   34 1
    37    5   35 1
    38    7   36 1
    39    9   37 1
    40   13   38 1
    41   22   39 1
    42   23   40 1
    43   25   41 1
    44   26   42 1
@<TRIPOS>MOLECULE
ZINC01033465
 46 48 0 0 0
SMALL
NO_CHARGES


@<TRIPOS>ATOM
      1 C           1.578    -3.548     1.325  C    
      2 O           0.914    -4.478     0.467  O    
      3 C           1.438    -5.629    -0.026  C    
      4 O           2.691    -6.018     0.304  O    
      5 C           0.622    -6.480    -0.928  C    
      6 C           0.290    -7.747    -0.234  C    
      7 C           0.805    -8.899    -0.722  C    
      8 C           1.596    -8.911    -1.833  C    
      9 N           1.795    -7.818    -2.483  N    
     10 N           1.339    -6.642    -2.200  N    
     11 C           1.548    -5.635    -3.126  C    
     12 C           0.990    -4.333    -2.975  C    
     13 C           1.175    -3.321    -3.934  C    
     14 C           1.931    -3.572    -5.089  C    
     15 C           2.493    -4.841    -5.279  C    
     16 C           2.306    -5.850    -4.316  C    
     17 C           2.140   -10.055    -2.318  C    
     18 O           3.067   -10.508    -1.660  O    
     19 C           1.697   -10.709    -3.481  C    
     20 C           0.575   -10.258    -4.232  C    
     21 C           0.148   -10.922    -5.397  C    
     22 C           0.823   -12.069    -5.847  C    
     23 C           1.929   -12.544    -5.120  C    
     24 C           2.357   -11.876    -3.957  C    
     25 Cl          0.309   -12.874    -7.246  Cl   
     26 C          -0.541    -7.753     0.895  C    
     27 O          -0.811    -8.894     1.578  O    
     28 O          -1.106    -6.595     1.337  O    
     29 C          -1.952    -6.439     2.478  C    
     30 H           1.903    -4.044     2.243  H    
     31 H           0.882    -2.747     1.582  H    
     32 H           2.442    -3.116     0.814  H    
     33 H          -0.337    -6.002    -1.142  H    
     34 H           0.591    -9.772    -0.285  H    
     35 H           0.421    -4.091    -2.164  H    
     36 H           0.754    -2.398    -3.796  H    
     37 H           2.060    -2.837    -5.791  H    
     38 H           3.039    -5.032    -6.124  H    
     39 H           2.748    -6.754    -4.502  H    
     40 H           0.048    -9.431    -3.943  H    
     41 H          -0.659   -10.566    -5.917  H    
     42 H           2.431   -13.381    -5.430  H    
     43 H           3.169   -12.252    -3.460  H    
     44 H          -2.843    -7.061     2.377  H    
     45 H          -2.254    -5.394     2.553  H    
     46 H          -1.414    -6.716     3.387  H    
@<TRIPOS>BOND
     1    1    2 1
     2    2    3 1
     3    3    4 2
     4    3    5 1
     5    5   10 1
     6    5    6 1
     7    6    7 2
     8    6   26 1
     9    7    8 1
    10    8    9 2
    11    8   17 1
    12    9   10 1
    13   10   11 1
    14   11   16 ar
    15   11   12 ar
    16   12   13 ar
    17   13   14 ar
    18   14   15 ar
    19   15   16 ar
    20   17   18 2
    21   17   19 1
    22   19   24 ar
    23   19   20 ar
    24   20   21 ar
    25   21   22 ar
    26   22   23 ar
    27   22   25 1
    28   23   24 ar
    29   26   27 2
    30   26   28 1
    31   28   29 1
    32    1   30 1
    33    1   31 1
    34    1   32 1
    35    5   33 1
    36    7   34 1
    37   12   35 1
    38   13   36 1
    39   14   37 1
    40   15   38 1
    41   16   39 1
    42   20   40 1
    43   21   41 1
    44   23   42 1
    45   24   43 1
    46   29   44 1
    47   29   45 1
    48   29   46 1
@<TRIPOS>MOLECULE
ZINC01065043
 46 48 0 0 0
SMALL
NO_CHARGES


@<TRIPOS>ATOM
      1 C           2.584    -5.807    -1.129  C    
      2 C           3.453    -5.544    -2.204  C    
      3 C           4.440    -4.546    -2.080  C    
      4 C           4.583    -3.812    -0.879  C    
      5 C           3.698    -4.086     0.190  C    
      6 C           2.702    -5.076     0.067  C    
      7 C           5.626    -2.760    -0.758  C    
      8 N           5.178    -1.519    -1.309  N    
      9 C           4.251    -0.690    -0.792  C    
     10 N           4.125     0.377    -1.585  N    
     11 C           4.994     0.174    -2.583  C    
     12 N           5.639    -0.990    -2.400  N    
     13 S           5.252     1.239    -3.921  S    
     14 O           6.574     2.066    -3.605  O    
     15 O           3.977     2.176    -4.088  O    
     16 N           5.481     0.288    -5.294  N    
     17 C           5.782     0.746    -6.494  C    
     18 O           5.897     1.948    -6.704  O    
     19 N           5.949    -0.147    -7.458  N    
     20 C           6.287     0.111    -8.829  C    
     21 C           7.727     0.693    -8.982  C    
     22 C           8.123     0.873   -10.471  C    
     23 C           7.967    -0.448   -11.268  C    
     24 C           6.540    -1.040   -11.121  C    
     25 C           6.145    -1.216    -9.632  C    
     26 H           1.866    -6.529    -1.217  H    
     27 H           3.368    -6.077    -3.071  H    
     28 H           5.059    -4.365    -2.874  H    
     29 H           3.765    -3.560     1.065  H    
     30 H           2.069    -5.264     0.845  H    
     31 H           5.904    -2.611     0.289  H    
     32 H           6.532    -3.101    -1.269  H    
     33 H           3.725    -0.840     0.074  H    
     34 H           5.389    -0.674    -5.183  H    
     35 H           5.813    -1.076    -7.214  H    
     36 H           5.567     0.830    -9.240  H    
     37 H           7.794     1.666    -8.490  H    
     38 H           8.444     0.024    -8.497  H    
     39 H           7.491     1.646   -10.920  H    
     40 H           9.160     1.213   -10.531  H    
     41 H           8.173    -0.258   -12.323  H    
     42 H           8.699    -1.176   -10.906  H    
     43 H           5.820    -0.377   -11.610  H    
     44 H           6.497    -2.010   -11.624  H    
     45 H           6.777    -1.989    -9.183  H    
     46 H           5.108    -1.563    -9.581  H    
@<TRIPOS>BOND
     1    1    6 ar
     2    1    2 ar
     3    2    3 ar
     4    3    4 ar
     5    4    5 ar
     6    4    7 1
     7    5    6 ar
     8    7    8 1
     9    8   12 1
    10    8    9 1
    11    9   10 2
    12   10   11 1
    13   11   12 2
    14   11   13 1
    15   13   14 2
    16   13   15 2
    17   13   16 1
    18   16   17 1
    19   17   18 2
    20   17   19 1
    21   19   20 1
    22   20   25 1
    23   20   21 1
    24   21   22 1
    25   22   23 1
    26   23   24 1
    27   24   25 1
    28    1   26 1
    29    2   27 1
    30    3   28 1
    31    5   29 1
    32    6   30 1
    33    7   31 1
    34    7   32 1
    35    9   33 1
    36   16   34 1
    37   19   35 1
    38   20   36 1
    39   21   37 1
    40   21   38 1
    41   22   39 1
    42   22   40 1
    43   23   41 1
    44   23   42 1
    45   24   43 1
    46   24   44 1
    47   25   45 1
    48   25   46 1
@<TRIPOS>MOLECULE
ZINC01079960
 49 51 0 0 0
SMALL
NO_CHARGES


@<TRIPOS>ATOM
      1 C           0.128    -4.046     2.753  C    
      2 C           1.106    -5.081     2.157  C    
      3 O           1.381    -4.847     0.770  O    
      4 C           0.541    -4.994    -0.289  C    
      5 O          -0.722    -5.448    -0.112  O    
      6 C           1.018    -4.680    -1.661  C    
      7 C           2.158    -5.675    -2.088  C    
      8 C           2.891    -5.113    -3.349  C    
      9 C           3.340    -3.731    -3.142  C    
     10 C           2.612    -2.903    -2.356  C    
     11 C           1.443    -3.274    -1.760  C    
     12 O           0.659    -2.389    -1.438  O    
     13 N           4.540    -3.419    -3.655  N    
     14 C           5.084    -2.254    -4.093  C    
     15 C           4.440    -1.002    -4.240  C    
     16 C           5.168     0.094    -4.735  C    
     17 C           6.513    -0.062    -5.112  C    
     18 C           7.112    -1.326    -4.976  C    
     19 N           6.383    -2.355    -4.481  N    
     20 Br          7.489     1.376    -5.777  Br   
     21 C           1.697    -7.092    -2.271  C    
     22 C           0.761    -7.444    -3.275  C    
     23 C           0.361    -8.779    -3.458  C    
     24 C           0.889    -9.789    -2.638  C    
     25 C           1.804    -9.465    -1.614  C    
     26 C           2.204    -8.125    -1.445  C    
     27 O           2.374   -10.420    -0.817  O    
     28 C           1.477   -11.005     0.147  C    
     29 H           0.505    -3.035     2.590  H    
     30 H           0.020    -4.206     3.827  H    
     31 H          -0.854    -4.140     2.290  H    
     32 H           2.052    -5.014     2.696  H    
     33 H           0.712    -6.090     2.294  H    
     34 H           0.178    -4.788    -2.356  H    
     35 H           2.912    -5.657    -1.290  H    
     36 H           3.728    -5.772    -3.595  H    
     37 H           2.211    -5.113    -4.202  H    
     38 H           2.980    -2.015    -2.118  H    
     39 H           5.118    -4.184    -3.787  H    
     40 H           3.453    -0.882    -4.023  H    
     41 H           4.712     1.004    -4.838  H    
     42 H           8.085    -1.479    -5.242  H    
     43 H           0.370    -6.730    -3.891  H    
     44 H          -0.308    -9.019    -4.194  H    
     45 H           0.600   -10.757    -2.788  H    
     46 H           2.880    -7.908    -0.709  H    
     47 H           0.939   -10.245     0.728  H    
     48 H           2.067   -11.618     0.829  H    
     49 H           0.747   -11.659    -0.349  H    
@<TRIPOS>BOND
     1    1    2 1
     2    2    3 1
     3    3    4 1
     4    4    5 2
     5    4    6 1
     6    6   11 1
     7    6    7 1
     8    7    8 1
     9    7   21 1
    10    8    9 1
    11    9   10 2
    12    9   13 1
    13   10   11 1
    14   11   12 2
    15   13   14 1
    16   14   19 ar
    17   14   15 ar
    18   15   16 ar
    19   16   17 ar
    20   17   18 ar
    21   17   20 1
    22   18   19 ar
    23   21   26 ar
    24   21   22 ar
    25   22   23 ar
    26   23   24 ar
    27   24   25 ar
    28   25   26 ar
    29   25   27 1
    30   27   28 1
    31    1   29 1
    32    1   30 1
    33    1   31 1
    34    2   32 1
    35    2   33 1
    36    6   34 1
    37    7   35 1
    38    8   36 1
    39    8   37 1
    40   10   38 1
    41   13   39 1
    42   15   40 1
    43   16   41 1
    44   18   42 1
    45   22   43 1
    46   23   44 1
    47   24   45 1
    48   26   46 1
    49   28   47 1
    50   28   48 1
    51   28   49 1
@<TRIPOS>MOLECULE
ZINC01080399
 59 62 0 0 0
SMALL
NO_CHARGES


@<TRIPOS>ATOM
      1 C           7.204   -12.550   -11.454  C    
      2 C           7.457   -12.076   -10.013  C    
      3 O           6.770   -10.840    -9.784  O    
      4 C           6.769   -10.101    -8.640  C    
      5 O           7.473   -10.590    -7.585  O    
      6 C           6.029    -8.910    -8.509  C    
      7 C           5.582    -8.165    -9.558  C    
      8 N           4.911    -7.057    -9.338  N    
      9 C           4.694    -6.489    -8.180  C    
     10 C           5.113    -7.081    -7.035  C    
     11 C           5.723    -8.429    -7.133  C    
     12 C           4.850    -9.427    -6.425  C    
     13 C           3.545    -9.719    -6.892  C    
     14 C           2.738   -10.668    -6.240  C    
     15 C           3.224   -11.355    -5.112  C    
     16 C           4.524   -11.088    -4.636  C    
     17 C           5.317   -10.115    -5.278  C    
     18 O           4.999   -11.733    -3.524  O    
     19 C           5.835   -12.863    -3.849  C    
     20 O           2.449   -12.273    -4.478  O    
     21 C           4.961    -6.448    -5.815  C    
     22 O           5.604    -6.824    -4.841  O    
     23 C           4.196    -5.216    -5.649  C    
     24 C           3.271    -4.908    -6.864  C    
     25 C           4.035    -5.184    -8.193  C    
     26 C           2.661    -3.540    -6.801  C    
     27 C           3.461    -2.371    -6.865  C    
     28 C           2.880    -1.094    -6.796  C    
     29 C           1.484    -0.958    -6.660  C    
     30 C           0.674    -2.106    -6.595  C    
     31 C           1.258    -3.382    -6.666  C    
     32 Cl          0.783     0.576    -6.571  Cl   
     33 C           5.819    -8.467   -10.967  C    
     34 H           6.136   -12.709   -11.615  H    
     35 H           7.732   -13.489   -11.634  H    
     36 H           7.563   -11.803   -12.163  H    
     37 H           7.095   -12.831    -9.313  H    
     38 H           8.529   -11.936    -9.859  H    
     39 H           4.587    -6.603   -10.091  H    
     40 H           6.693    -8.341    -6.630  H    
     41 H           3.174    -9.238    -7.716  H    
     42 H           1.797   -10.858    -6.591  H    
     43 H           6.250    -9.923    -4.907  H    
     44 H           5.282   -13.620    -4.414  H    
     45 H           6.172   -13.311    -2.917  H    
     46 H           6.718   -12.557    -4.416  H    
     47 H           1.607   -12.305    -4.982  H    
     48 H           3.577    -5.292    -4.752  H    
     49 H           4.909    -4.402    -5.498  H    
     50 H           2.466    -5.652    -6.825  H    
     51 H           4.802    -4.429    -8.360  H    
     52 H           3.322    -5.127    -9.017  H    
     53 H           4.477    -2.441    -6.959  H    
     54 H           3.479    -0.266    -6.845  H    
     55 H          -0.342    -2.020    -6.494  H    
     56 H           0.645    -4.199    -6.613  H    
     57 H           6.887    -8.588   -11.152  H    
     58 H           5.465    -7.679   -11.635  H    
     59 H           5.296    -9.382   -11.244  H    
@<TRIPOS>BOND
     1    1    2 1
     2    2    3 1
     3    3    4 1
     4    4    5 2
     5    4    6 1
     6    6   11 1
     7    6    7 2
     8    7    8 1
     9    7   33 1
    10    8    9 1
    11    9   25 1
    12    9   10 2
    13   10   11 1
    14   10   21 1
    15   11   12 1
    16   12   17 ar
    17   12   13 ar
    18   13   14 ar
    19   14   15 ar
    20   15   16 ar
    21   15   20 1
    22   16   17 ar
    23   16   18 1
    24   18   19 1
    25   21   22 2
    26   21   23 1
    27   23   24 1
    28   24   25 1
    29   24   26 1
    30   26   31 ar
    31   26   27 ar
    32   27   28 ar
    33   28   29 ar
    34   29   30 ar
    35   29   32 1
    36   30   31 ar
    37    1   34 1
    38    1   35 1
    39    1   36 1
    40    2   37 1
    41    2   38 1
    42    8   39 1
    43   11   40 1
    44   13   41 1
    45   14   42 1
    46   17   43 1
    47   19   44 1
    48   19   45 1
    49   19   46 1
    50   20   47 1
    51   23   48 1
    52   23   49 1
    53   24   50 1
    54   25   51 1
    55   25   52 1
    56   27   53 1
    57   28   54 1
    58   30   55 1
    59   31   56 1
    60   33   57 1
    61   33   58 1
    62   33   59 1
@<TRIPOS>MOLECULE
ZINC01082923
 48 50 0 0 0
SMALL
NO_CHARGES


@<TRIPOS>ATOM
      1 C          -0.526    -4.981    -2.278  C    
      2 C           0.723    -4.515    -2.897  C    
      3 C           0.988    -4.329    -4.246  C    
      4 C           2.304    -3.882    -4.328  C    
      5 N           2.770    -3.830    -3.054  N    
      6 N           1.835    -4.188    -2.222  N    
      7 C           4.014    -3.445    -2.626  C    
      8 C           5.187    -4.006    -3.181  C    
      9 C           6.460    -3.610    -2.728  C    
     10 C           6.573    -2.643    -1.713  C    
     11 C           5.417    -2.081    -1.150  C    
     12 C           4.145    -2.487    -1.595  C    
     13 N           3.036    -3.518    -5.426  N    
     14 C           2.665    -3.348    -6.686  C    
     15 O           1.496    -3.487    -7.021  O    
     16 C           3.606    -2.953    -7.642  C    
     17 C           4.976    -3.291    -7.512  C    
     18 C           5.936    -2.860    -8.453  C    
     19 C           5.522    -2.119    -9.584  C    
     20 C           4.161    -1.780    -9.744  C    
     21 C           3.221    -2.191    -8.774  C    
     22 O           3.796    -0.973   -10.795  O    
     23 C           2.926    -1.586   -11.765  C    
     24 O           6.449    -1.665   -10.485  O    
     25 C           6.722    -2.587   -11.555  C    
     26 O           7.258    -3.204    -8.323  O    
     27 C           7.964    -2.475    -7.304  C    
     28 H          -0.322    -5.881    -1.696  H    
     29 H          -1.274    -5.215    -3.038  H    
     30 H          -0.921    -4.209    -1.616  H    
     31 H           0.330    -4.481    -5.012  H    
     32 H           5.125    -4.716    -3.911  H    
     33 H           7.300    -4.027    -3.134  H    
     34 H           7.496    -2.356    -1.378  H    
     35 H           5.498    -1.380    -0.411  H    
     36 H           3.313    -2.064    -1.180  H    
     37 H           3.964    -3.312    -5.237  H    
     38 H           5.289    -3.868    -6.729  H    
     39 H           2.247    -1.911    -8.891  H    
     40 H           3.279    -2.580   -12.070  H    
     41 H           2.898    -0.944   -12.650  H    
     42 H           1.908    -1.667   -11.366  H    
     43 H           7.137    -3.525   -11.180  H    
     44 H           7.461    -2.131   -12.217  H    
     45 H           5.827    -2.796   -12.144  H    
     46 H           7.809    -1.390    -7.383  H    
     47 H           9.032    -2.675    -7.423  H    
     48 H           7.665    -2.815    -6.307  H    
@<TRIPOS>BOND
     1    1    2 1
     2    2    6 2
     3    2    3 1
     4    3    4 2
     5    4    5 1
     6    4   13 1
     7    5    6 1
     8    5    7 1
     9    7   12 ar
    10    7    8 ar
    11    8    9 ar
    12    9   10 ar
    13   10   11 ar
    14   11   12 ar
    15   13   14 1
    16   14   15 2
    17   14   16 1
    18   16   21 ar
    19   16   17 ar
    20   17   18 ar
    21   18   19 ar
    22   18   26 1
    23   19   20 ar
    24   19   24 1
    25   20   21 ar
    26   20   22 1
    27   22   23 1
    28   24   25 1
    29   26   27 1
    30    1   28 1
    31    1   29 1
    32    1   30 1
    33    3   31 1
    34    8   32 1
    35    9   33 1
    36   10   34 1
    37   11   35 1
    38   12   36 1
    39   13   37 1
    40   17   38 1
    41   21   39 1
    42   23   40 1
    43   23   41 1
    44   23   42 1
    45   25   43 1
    46   25   44 1
    47   25   45 1
    48   27   46 1
    49   27   47 1
    50   27   48 1
@<TRIPOS>MOLECULE
ZINC01085012
 56 59 0 0 0
SMALL
NO_CHARGES


@<TRIPOS>ATOM
      1 C          -0.612    -4.356    -4.978  C    
      2 C           0.185    -3.494    -3.980  C    
      3 O           0.283    -4.175    -2.724  O    
      4 C           0.898    -3.734    -1.593  C    
      5 O           1.506    -2.521    -1.639  O    
      6 C           0.954    -4.558    -0.454  C    
      7 C           1.352    -4.126     0.768  C    
      8 O           1.517    -4.969     1.808  O    
      9 C           0.915    -6.176     1.815  C    
     10 C           0.456    -6.750     0.676  C    
     11 C           0.595    -5.988    -0.580  C    
     12 C           1.591    -6.666    -1.452  C    
     13 C           1.365    -7.260    -2.700  C    
     14 C           2.501    -7.823    -3.317  C    
     15 C           3.678    -7.697    -2.557  C    
     16 S           3.264    -6.865    -1.108  S    
     17 C           5.034    -8.173    -2.878  C    
     18 C           2.411    -8.478    -4.641  C    
     19 O           1.525    -9.608    -4.534  O    
     20 C           1.599   -10.470    -5.598  C    
     21 C           0.879   -10.200    -6.783  C    
     22 C           0.951   -11.087    -7.873  C    
     23 C           1.728   -12.258    -7.780  C    
     24 C           2.430   -12.543    -6.594  C    
     25 C           2.369   -11.653    -5.501  C    
     26 Cl          3.215   -12.026    -4.079  Cl   
     27 F           1.789   -13.085    -8.790  F    
     28 C          -0.064    -8.031     0.695  C    
     29 O          -0.739    -8.439    -0.240  O    
     30 C           0.069    -8.926     1.843  C    
     31 C           1.036    -8.386     2.933  C    
     32 C           0.844    -6.856     3.101  C    
     33 N           1.620    -2.903     1.063  N    
     34 H          -0.114    -5.316    -5.126  H    
     35 H          -0.681    -3.841    -5.940  H    
     36 H          -1.622    -4.529    -4.598  H    
     37 H           1.188    -3.311    -4.378  H    
     38 H          -0.324    -2.535    -3.841  H    
     39 H          -0.390    -6.016    -1.061  H    
     40 H           0.439    -7.280    -3.130  H    
     41 H           5.025    -9.257    -3.008  H    
     42 H           5.736    -7.924    -2.080  H    
     43 H           5.380    -7.700    -3.798  H    
     44 H           2.014    -7.756    -5.360  H    
     45 H           3.406    -8.785    -4.981  H    
     46 H           0.313    -9.352    -6.860  H    
     47 H           0.435   -10.882    -8.732  H    
     48 H           2.978   -13.403    -6.523  H    
     49 H          -0.922    -9.071     2.287  H    
     50 H           0.434    -9.902     1.509  H    
     51 H           0.855    -8.894     3.884  H    
     52 H           2.069    -8.589     2.633  H    
     53 H           1.602    -6.469     3.787  H    
     54 H          -0.137    -6.662     3.542  H    
     55 H           1.960    -2.692     1.908  H    
     56 H           1.356    -2.211     0.498  H    
@<TRIPOS>BOND
     1    1    2 1
     2    2    3 1
     3    3    4 1
     4    4    5 2
     5    4    6 1
     6    6   11 1
     7    6    7 2
     8    7    8 1
     9    7   33 1
    10    8    9 1
    11    9   32 1
    12    9   10 2
    13   10   11 1
    14   10   28 1
    15   11   12 1
    16   12   16 1
    17   12   13 2
    18   13   14 1
    19   14   15 2
    20   14   18 1
    21   15   16 1
    22   15   17 1
    23   18   19 1
    24   19   20 1
    25   20   25 ar
    26   20   21 ar
    27   21   22 ar
    28   22   23 ar
    29   23   24 ar
    30   23   27 1
    31   24   25 ar
    32   25   26 1
    33   28   29 2
    34   28   30 1
    35   30   31 1
    36   31   32 1
    37    1   34 1
    38    1   35 1
    39    1   36 1
    40    2   37 1
    41    2   38 1
    42   11   39 1
    43   13   40 1
    44   17   41 1
    45   17   42 1
    46   17   43 1
    47   18   44 1
    48   18   45 1
    49   21   46 1
    50   22   47 1
    51   24   48 1
    52   30   49 1
    53   30   50 1
    54   31   51 1
    55   31   52 1
    56   32   53 1
    57   32   54 1
    58   33   55 1
    59   33   56 1
@<TRIPOS>MOLECULE
ZINC01085867
 41 43 0 0 0
SMALL
NO_CHARGES


@<TRIPOS>ATOM
      1 C          -1.784    -2.242    -1.883  C    
      2 C          -0.675    -2.949    -2.556  C    
      3 C          -0.627    -4.357    -2.683  C    
      4 C           0.459    -4.997    -3.340  C    
      5 C           1.502    -4.178    -3.874  C    
      6 C           2.702    -4.532    -4.555  C    
      7 C           3.500    -3.434    -4.949  C    
      8 S           2.725    -2.000    -4.401  S    
      9 C           1.378    -2.788    -3.699  C    
     10 N           0.335    -2.205    -3.071  N    
     11 C           4.684    -3.402    -5.715  C    
     12 O           5.059    -4.472    -6.450  O    
     13 O           5.431    -2.262    -5.743  O    
     14 C           6.638    -2.060    -6.482  C    
     15 N           3.041    -5.829    -4.808  N    
     16 C           4.139    -6.453    -4.404  C    
     17 O           5.024    -5.868    -3.792  O    
     18 C           4.259    -7.808    -4.641  C    
     19 C           5.356    -8.626    -4.360  C    
     20 C           5.028    -9.913    -4.761  C    
     21 C           3.736    -9.856    -5.271  C    
     22 O           3.284    -8.580    -5.195  O    
     23 C           0.488    -6.482    -3.462  C    
     24 O          -0.622    -7.169    -2.847  O    
     25 C          -0.589    -8.602    -2.979  C    
     26 H          -1.393    -1.665    -1.042  H    
     27 H          -2.542    -2.932    -1.507  H    
     28 H          -2.261    -1.558    -2.589  H    
     29 H          -1.394    -4.908    -2.292  H    
     30 H           7.393    -2.783    -6.170  H    
     31 H           7.011    -1.052    -6.290  H    
     32 H           6.445    -2.168    -7.553  H    
     33 H           2.352    -6.384    -5.202  H    
     34 H           6.246    -8.338    -3.943  H    
     35 H           5.621   -10.744    -4.695  H    
     36 H           3.208   -10.648    -5.645  H    
     37 H           0.496    -6.729    -4.527  H    
     38 H           1.410    -6.843    -2.997  H    
     39 H          -0.608    -8.899    -4.030  H    
     40 H          -1.471    -9.015    -2.490  H    
     41 H           0.299    -9.017    -2.498  H    
@<TRIPOS>BOND
     1    1    2 1
     2    2   10 ar
     3    2    3 ar
     4    3    4 ar
     5    4    5 ar
     6    4   23 1
     7    5    9 ar
     8    5    6 1
     9    6    7 2
    10    6   15 1
    11    7    8 1
    12    7   11 1
    13    8    9 1
    14    9   10 ar
    15   11   12 2
    16   11   13 1
    17   13   14 1
    18   15   16 1
    19   16   17 2
    20   16   18 1
    21   18   22 1
    22   18   19 2
    23   19   20 1
    24   20   21 2
    25   21   22 1
    26   23   24 1
    27   24   25 1
    28    1   26 1
    29    1   27 1
    30    1   28 1
    31    3   29 1
    32   14   30 1
    33   14   31 1
    34   14   32 1
    35   15   33 1
    36   19   34 1
    37   20   35 1
    38   21   36 1
    39   23   37 1
    40   23   38 1
    41   25   39 1
    42   25   40 1
    43   25   41 1
@<TRIPOS>MOLECULE
ZINC01087611
 36 37 0 0 0
SMALL
NO_CHARGES


@<TRIPOS>ATOM
      1 C           4.240    -5.226    -4.593  C    
      2 C           4.684    -5.348    -5.922  C    
      3 C           5.377    -4.290    -6.564  C    
      4 C           5.595    -3.100    -5.819  C    
      5 C           5.147    -2.956    -4.486  C    
      6 C           4.472    -4.039    -3.879  C    
      7 N           5.398    -1.765    -3.872  N    
      8 S           4.737    -1.224    -2.413  S    
      9 O           3.149    -1.296    -2.503  O    
     10 O           5.246    -2.125    -1.206  O    
     11 C           5.228     0.434    -2.163  C    
     12 C           4.406     1.482    -2.644  C    
     13 C           4.754     2.843    -2.463  C    
     14 C           5.957     3.136    -1.782  C    
     15 C           6.792     2.104    -1.313  C    
     16 C           6.440     0.756    -1.512  C    
     17 O           7.309    -0.190    -1.068  O    
     18 C           3.923     3.884    -2.956  C    
     19 O           4.236     5.189    -2.782  O    
     20 C           5.778    -4.460    -7.899  C    
     21 C           6.698    -3.727    -8.556  C    
     22 C           7.050    -3.925    -9.881  C    
     23 O           6.429    -4.828   -10.680  O    
     24 O           2.785     3.627    -3.642  O    
     25 O           8.021    -3.163   -10.431  O    
     26 H           3.741    -6.001    -4.147  H    
     27 H           4.499    -6.227    -6.414  H    
     28 H           6.061    -2.303    -6.257  H    
     29 H           4.142    -3.979    -2.916  H    
     30 H           5.934    -1.122    -4.364  H    
     31 H           3.541     1.244    -3.136  H    
     32 H           6.248     4.104    -1.628  H    
     33 H           7.664     2.341    -0.837  H    
     34 H           7.162    -0.976    -1.638  H    
     35 H           5.360    -5.213    -8.397  H    
     36 H           7.192    -3.015    -8.071  H    
@<TRIPOS>BOND
     1    1    6 ar
     2    1    2 ar
     3    2    3 ar
     4    3    4 ar
     5    3   20 1
     6    4    5 ar
     7    5    6 ar
     8    5    7 1
     9    7    8 1
    10    8    9 2
    11    8   10 2
    12    8   11 1
    13   11   16 ar
    14   11   12 ar
    15   12   13 ar
    16   13   14 ar
    17   13   18 1
    18   14   15 ar
    19   15   16 ar
    20   16   17 1
    21   18   19 2
    22   18   24 1
    23   20   21 2
    24   21   22 1
    25   22   23 2
    26   22   25 1
    27    1   26 1
    28    2   27 1
    29    4   28 1
    30    6   29 1
    31    7   30 1
    32   12   31 1
    33   14   32 1
    34   15   33 1
    35   17   34 1
    36   20   35 1
    37   21   36 1
@<TRIPOS>MOLECULE
ZINC01090202
 44 46 0 0 0
SMALL
NO_CHARGES


@<TRIPOS>ATOM
      1 C          -3.318     2.423    -2.962  C    
      2 C          -1.838     2.327    -3.378  C    
      3 O          -1.390     0.966    -3.214  O    
      4 C          -0.035     0.788    -3.297  C    
      5 C           0.687     1.001    -4.490  C    
      6 C           2.076     0.773    -4.528  C    
      7 C           2.767     0.300    -3.384  C    
      8 C           2.024     0.046    -2.211  C    
      9 C           0.639     0.292    -2.164  C    
     10 N           4.093     0.010    -3.342  N    
     11 C           5.065     0.290    -4.208  C    
     12 S           5.205     1.875    -4.824  S    
     13 N           5.995    -0.658    -4.320  N    
     14 C           7.242    -0.631    -4.849  C    
     15 N           7.987    -1.754    -4.926  N    
     16 C           9.245    -1.652    -5.448  C    
     17 C           9.567    -0.336    -5.827  C    
     18 S           8.209     0.649    -5.483  S    
     19 C          10.100    -2.791    -5.577  C    
     20 C          11.498    -2.661    -5.779  C    
     21 C          12.327    -3.793    -5.899  C    
     22 C          11.789    -5.098    -5.815  C    
     23 C          10.398    -5.238    -5.617  C    
     24 C           9.570    -4.104    -5.500  C    
     25 C          12.685    -6.277    -5.930  C    
     26 H          -3.918     1.702    -3.527  H    
     27 H          -3.692     3.429    -3.160  H    
     28 H          -3.418     2.212    -1.894  H    
     29 H          -1.748     2.627    -4.430  H    
     30 H          -1.258     3.025    -2.757  H    
     31 H           0.203     1.315    -5.334  H    
     32 H           2.567     0.914    -5.413  H    
     33 H           2.491    -0.314    -1.372  H    
     34 H           0.122     0.102    -1.303  H    
     35 H           4.371    -0.504    -2.569  H    
     36 H           5.732    -1.525    -3.967  H    
     37 H          10.433    -0.001    -6.252  H    
     38 H          11.936    -1.738    -5.827  H    
     39 H          13.332    -3.660    -6.040  H    
     40 H           9.976    -6.168    -5.548  H    
     41 H           8.566    -4.254    -5.362  H    
     42 H          13.189    -6.262    -6.899  H    
     43 H          12.139    -7.221    -5.841  H    
     44 H          13.440    -6.248    -5.138  H    
@<TRIPOS>BOND
     1    1    2 1
     2    2    3 1
     3    3    4 1
     4    4    9 ar
     5    4    5 ar
     6    5    6 ar
     7    6    7 ar
     8    7    8 ar
     9    7   10 1
    10    8    9 ar
    11   10   11 1
    12   11   12 2
    13   11   13 1
    14   13   14 1
    15   14   18 1
    16   14   15 2
    17   15   16 1
    18   16   17 2
    19   16   19 1
    20   17   18 1
    21   19   24 ar
    22   19   20 ar
    23   20   21 ar
    24   21   22 ar
    25   22   23 ar
    26   22   25 1
    27   23   24 ar
    28    1   26 1
    29    1   27 1
    30    1   28 1
    31    2   29 1
    32    2   30 1
    33    5   31 1
    34    6   32 1
    35    8   33 1
    36    9   34 1
    37   10   35 1
    38   13   36 1
    39   17   37 1
    40   20   38 1
    41   21   39 1
    42   23   40 1
    43   24   41 1
    44   25   42 1
    45   25   43 1
    46   25   44 1
@<TRIPOS>MOLECULE
ZINC01091016
 45 47 0 0 0
SMALL
NO_CHARGES


@<TRIPOS>ATOM
      1 C          -0.637    -8.107    -4.177  C    
      2 C           0.562    -8.209    -3.207  C    
      3 C           1.496    -7.055    -3.323  C    
      4 C           1.646    -6.125    -2.268  C    
      5 C           2.538    -5.043    -2.383  C    
      6 C           3.293    -4.850    -3.560  C    
      7 C           3.163    -5.788    -4.609  C    
      8 C           2.276    -6.875    -4.490  C    
      9 N           4.135    -3.781    -3.585  N    
     10 C           4.777    -3.109    -4.563  C    
     11 N           4.643    -3.272    -5.884  N    
     12 C           5.359    -2.438    -6.593  C    
     13 O           5.190    -2.383    -7.803  O    
     14 C           6.115    -1.597    -5.850  C    
     15 C           6.984    -0.651    -6.260  C    
     16 C           7.474    -0.434    -7.547  C    
     17 C           7.922    -1.489    -8.376  C    
     18 C           8.457    -1.266    -9.671  C    
     19 C           8.540     0.082   -10.125  C    
     20 C           8.125     1.150    -9.304  C    
     21 C           7.625     0.891    -8.014  C    
     22 O           8.255     2.448    -9.728  O    
     23 C           7.072     2.965   -10.360  C    
     24 O           9.024     0.407   -11.352  O    
     25 N           8.883    -2.330   -10.419  N    
     26 O           9.387    -2.219   -11.506  O    
     27 O           8.794    -3.566   -10.001  O    
     28 S           5.828    -1.796    -4.172  S    
     29 H          -1.196    -7.186    -3.995  H    
     30 H          -1.308    -8.956    -4.023  H    
     31 H          -0.301    -8.119    -5.215  H    
     32 H           0.166    -8.287    -2.192  H    
     33 H           1.111    -9.133    -3.409  H    
     34 H           1.104    -6.229    -1.406  H    
     35 H           2.624    -4.384    -1.603  H    
     36 H           3.730    -5.710    -5.455  H    
     37 H           2.208    -7.545    -5.261  H    
     38 H           4.029    -3.906    -6.284  H    
     39 H           7.308    -0.014    -5.566  H    
     40 H           7.880    -2.444    -8.008  H    
     41 H           7.347     1.682    -7.426  H    
     42 H           6.812     2.389   -11.251  H    
     43 H           7.272     3.994   -10.666  H    
     44 H           6.224     2.973    -9.672  H    
     45 H           8.581    -0.203   -11.973  H    
@<TRIPOS>BOND
     1    1    2 1
     2    2    3 1
     3    3    8 ar
     4    3    4 ar
     5    4    5 ar
     6    5    6 ar
     7    6    7 ar
     8    6    9 1
     9    7    8 ar
    10    9   10 2
    11   10   28 1
    12   10   11 1
    13   11   12 1
    14   12   13 2
    15   12   14 1
    16   14   15 2
    17   14   28 1
    18   15   16 1
    19   16   21 ar
    20   16   17 ar
    21   17   18 ar
    22   18   19 ar
    23   18   25 1
    24   19   20 ar
    25   19   24 1
    26   20   21 ar
    27   20   22 1
    28   22   23 1
    29   25   26 2
    30   25   27 1
    31    1   29 1
    32    1   30 1
    33    1   31 1
    34    2   32 1
    35    2   33 1
    36    4   34 1
    37    5   35 1
    38    7   36 1
    39    8   37 1
    40   11   38 1
    41   15   39 1
    42   17   40 1
    43   21   41 1
    44   23   42 1
    45   23   43 1
    46   23   44 1
    47   24   45 1
@<TRIPOS>MOLECULE
ZINC01091243
 34 35 0 0 0
SMALL
NO_CHARGES


@<TRIPOS>ATOM
      1 C          -0.619    -7.122    -1.732  C    
      2 C          -0.971    -8.054    -2.721  C    
      3 C          -0.718    -7.768    -4.074  C    
      4 C          -0.099    -6.554    -4.447  C    
      5 C           0.254    -5.588    -3.456  C    
      6 C          -0.015    -5.906    -2.097  C    
      7 C           0.849    -4.361    -3.779  C    
      8 O           0.508    -3.792    -4.812  O    
      9 N           1.696    -3.776    -2.936  N    
     10 N           2.352    -2.684    -3.051  N    
     11 C           2.586    -1.848    -3.998  C    
     12 C           3.359    -0.701    -3.808  C    
     13 C           3.669    -0.234    -2.502  C    
     14 C           4.440     0.934    -2.274  C    
     15 C           4.910     1.641    -3.408  C    
     16 C           4.610     1.208    -4.710  C    
     17 C           3.844     0.046    -4.916  C    
     18 O           3.614    -0.306    -6.214  O    
     19 N           4.719     1.361    -1.006  N    
     20 O           5.363     2.354    -0.779  O    
     21 O           4.303     0.718     0.055  O    
     22 N           0.163    -6.391    -5.761  N    
     23 H          -0.807    -7.326    -0.747  H    
     24 H          -1.413    -8.935    -2.458  H    
     25 H          -0.973    -8.461    -4.785  H    
     26 H           0.199    -5.242    -1.349  H    
     27 H           1.851    -4.253    -2.106  H    
     28 H           2.232    -2.051    -4.900  H    
     29 H           3.315    -0.747    -1.687  H    
     30 H           5.472     2.487    -3.293  H    
     31 H           4.958     1.740    -5.511  H    
     32 H           3.457    -1.273    -6.214  H    
     33 H           0.614    -5.593    -6.078  H    
     34 H          -0.079    -7.086    -6.391  H    
@<TRIPOS>BOND
     1    1    6 ar
     2    1    2 ar
     3    2    3 ar
     4    3    4 ar
     5    4    5 ar
     6    4   22 1
     7    5    6 ar
     8    5    7 1
     9    7    8 2
    10    7    9 1
    11    9   10 1
    12   10   11 2
    13   11   12 1
    14   12   17 ar
    15   12   13 ar
    16   13   14 ar
    17   14   15 ar
    18   14   19 1
    19   15   16 ar
    20   16   17 ar
    21   17   18 1
    22   19   20 2
    23   19   21 1
    24    1   23 1
    25    2   24 1
    26    3   25 1
    27    6   26 1
    28    9   27 1
    29   11   28 1
    30   13   29 1
    31   15   30 1
    32   16   31 1
    33   18   32 1
    34   22   33 1
    35   22   34 1
@<TRIPOS>MOLECULE
ZINC01091555
 39 40 0 0 0
SMALL
NO_CHARGES


@<TRIPOS>ATOM
      1 C           2.019    -7.155    -2.436  C    
      2 C           2.395    -7.065    -3.858  C    
      3 C           2.692    -8.199    -4.645  C    
      4 C           3.044    -7.997    -5.991  C    
      5 N           3.094    -6.738    -6.490  N    
      6 C           2.810    -5.646    -5.727  C    
      7 N           2.466    -5.834    -4.428  N    
      8 N           2.867    -4.370    -6.174  N    
      9 C           3.189    -3.928    -7.380  C    
     10 O           3.461    -4.686    -8.302  O    
     11 N           3.198    -2.618    -7.536  N    
     12 S           3.518    -1.808    -8.980  S    
     13 O           4.717    -2.519    -9.748  O    
     14 O           2.218    -1.862    -9.895  O    
     15 C           4.033    -0.177    -8.604  C    
     16 C           3.157     0.880    -8.940  C    
     17 C           3.497     2.212    -8.654  C    
     18 C           4.718     2.500    -8.029  C    
     19 C           5.597     1.457    -7.683  C    
     20 C           5.270     0.103    -7.960  C    
     21 N           6.076    -0.957    -7.629  N    
     22 C           7.284    -1.055    -7.089  C    
     23 O           7.952    -0.081    -6.757  O    
     24 C           7.833    -2.390    -6.918  C    
     25 F           6.999    -3.147    -6.130  F    
     26 F           7.950    -3.006    -8.141  F    
     27 F           9.078    -2.406    -6.332  F    
     28 Cl          3.418    -9.296    -7.004  Cl   
     29 H           2.739    -6.597    -1.834  H    
     30 H           2.001    -8.189    -2.085  H    
     31 H           1.028    -6.722    -2.292  H    
     32 H           2.657    -9.146    -4.251  H    
     33 H           2.648    -3.685    -5.518  H    
     34 H           2.975    -2.077    -6.760  H    
     35 H           2.257     0.693    -9.394  H    
     36 H           2.851     2.974    -8.901  H    
     37 H           4.966     3.473    -7.818  H    
     38 H           6.475     1.710    -7.224  H    
     39 H           5.689    -1.823    -7.836  H    
@<TRIPOS>BOND
     1    1    2 1
     2    2    7 ar
     3    2    3 ar
     4    3    4 ar
     5    4    5 ar
     6    4   28 1
     7    5    6 ar
     8    6    7 ar
     9    6    8 1
    10    8    9 1
    11    9   10 2
    12    9   11 1
    13   11   12 1
    14   12   13 2
    15   12   14 2
    16   12   15 1
    17   15   20 ar
    18   15   16 ar
    19   16   17 ar
    20   17   18 ar
    21   18   19 ar
    22   19   20 ar
    23   20   21 1
    24   21   22 1
    25   22   23 2
    26   22   24 1
    27   24   25 1
    28   24   26 1
    29   24   27 1
    30    1   29 1
    31    1   30 1
    32    1   31 1
    33    3   32 1
    34    8   33 1
    35   11   34 1
    36   16   35 1
    37   17   36 1
    38   18   37 1
    39   19   38 1
    40   21   39 1
@<TRIPOS>MOLECULE
ZINC01111212
 40 42 0 0 0
SMALL
NO_CHARGES


@<TRIPOS>ATOM
      1 C           0.384    -8.514    -5.974  C    
      2 C           1.501    -8.309    -5.080  C    
      3 O           1.303    -8.522    -3.889  O    
      4 N           2.663    -7.897    -5.573  N    
      5 C           3.857    -7.600    -4.967  C    
      6 C           4.123    -7.638    -3.576  C    
      7 C           5.382    -7.268    -3.072  C    
      8 C           6.424    -6.841    -3.932  C    
      9 C           6.165    -6.836    -5.325  C    
     10 C           4.902    -7.203    -5.829  C    
     11 C           7.657    -6.397    -3.435  C    
     12 O           8.665    -6.554    -4.114  O    
     13 C           7.778    -5.485    -2.301  C    
     14 S           7.945    -3.753    -2.826  S    
     15 C           6.432    -3.551    -3.595  C    
     16 N           6.300    -3.023    -4.745  N    
     17 N           5.141    -3.143    -5.082  N    
     18 C           4.496    -3.762    -4.168  C    
     19 O           5.289    -4.024    -3.125  O    
     20 C           3.154    -4.160    -4.209  C    
     21 C           2.523    -4.512    -2.985  C    
     22 C           1.185    -4.943    -2.944  C    
     23 C           0.441    -5.035    -4.128  C    
     24 C           1.042    -4.704    -5.356  C    
     25 C           2.385    -4.267    -5.408  C    
     26 Cl          2.998    -3.969    -6.970  Cl   
     27 H           0.054    -9.554    -5.920  H    
     28 H           0.642    -8.291    -7.014  H    
     29 H          -0.446    -7.865    -5.681  H    
     30 H           2.664    -7.777    -6.537  H    
     31 H           3.410    -7.923    -2.909  H    
     32 H           5.531    -7.320    -2.062  H    
     33 H           6.880    -6.523    -5.993  H    
     34 H           4.749    -7.161    -6.843  H    
     35 H           6.934    -5.552    -1.614  H    
     36 H           8.668    -5.756    -1.728  H    
     37 H           3.029    -4.457    -2.095  H    
     38 H           0.756    -5.193    -2.052  H    
     39 H          -0.528    -5.358    -4.104  H    
     40 H           0.491    -4.802    -6.213  H    
@<TRIPOS>BOND
     1    1    2 1
     2    2    3 2
     3    2    4 1
     4    4    5 1
     5    5   10 ar
     6    5    6 ar
     7    6    7 ar
     8    7    8 ar
     9    8    9 ar
    10    8   11 1
    11    9   10 ar
    12   11   12 2
    13   11   13 1
    14   13   14 1
    15   14   15 1
    16   15   19 1
    17   15   16 2
    18   16   17 1
    19   17   18 2
    20   18   19 1
    21   18   20 1
    22   20   25 ar
    23   20   21 ar
    24   21   22 ar
    25   22   23 ar
    26   23   24 ar
    27   24   25 ar
    28   25   26 1
    29    1   27 1
    30    1   28 1
    31    1   29 1
    32    4   30 1
    33    6   31 1
    34    7   32 1
    35    9   33 1
    36   10   34 1
    37   13   35 1
    38   13   36 1
    39   21   37 1
    40   22   38 1
    41   23   39 1
    42   24   40 1
@<TRIPOS>MOLECULE
ZINC01113905
 54 56 0 0 0
SMALL
NO_CHARGES


@<TRIPOS>ATOM
      1 C           1.295   -11.549    -7.731  C    
      2 C           1.840   -10.294    -6.994  C    
      3 C           1.007    -8.948    -7.037  C    
      4 C          -0.407    -9.181    -6.399  C    
      5 C           0.795    -8.548    -8.540  C    
      6 C           1.809    -7.794    -6.270  C    
      7 C           1.929    -7.981    -4.716  C    
      8 C           2.894    -6.953    -4.058  C    
      9 C           2.717    -5.556    -4.534  C    
     10 C           1.955    -5.309    -5.686  C    
     11 S           1.873    -3.612    -5.910  S    
     12 C           2.844    -3.187    -4.558  C    
     13 C           3.222    -4.383    -3.901  C    
     14 C           3.942    -4.408    -2.711  C    
     15 O           4.747    -5.299    -2.477  O    
     16 N           3.776    -3.501    -1.773  N    
     17 N           3.135    -1.870    -4.345  N    
     18 C           4.299    -1.339    -4.000  C    
     19 O           5.299    -2.039    -3.854  O    
     20 N           4.332    -0.016    -3.892  N    
     21 C           5.350     0.834    -3.542  C    
     22 C           6.563     0.459    -2.910  C    
     23 C           7.539     1.423    -2.587  C    
     24 C           7.311     2.780    -2.878  C    
     25 C           6.107     3.172    -3.485  C    
     26 C           5.133     2.207    -3.809  C    
     27 C           1.319    -6.327    -6.548  C    
     28 H           0.304   -11.817    -7.360  H    
     29 H           1.964   -12.393    -7.552  H    
     30 H           1.246   -11.388    -8.809  H    
     31 H           1.968   -10.606    -5.957  H    
     32 H           2.842   -10.106    -7.392  H    
     33 H          -1.009    -9.863    -7.003  H    
     34 H          -0.963    -8.248    -6.318  H    
     35 H          -0.320    -9.614    -5.400  H    
     36 H           1.756    -8.351    -9.022  H    
     37 H           0.172    -7.657    -8.631  H    
     38 H           0.282    -9.328    -9.102  H    
     39 H           2.836    -7.828    -6.655  H    
     40 H           0.942    -7.862    -4.263  H    
     41 H           2.294    -8.977    -4.461  H    
     42 H           2.726    -6.991    -2.980  H    
     43 H           3.927    -7.249    -4.255  H    
     44 H           4.289    -3.555    -0.953  H    
     45 H           3.134    -2.783    -1.894  H    
     46 H           2.435    -1.238    -4.587  H    
     47 H           3.500     0.427    -4.125  H    
     48 H           6.750    -0.508    -2.652  H    
     49 H           8.408     1.136    -2.134  H    
     50 H           8.020     3.477    -2.645  H    
     51 H           5.937     4.157    -3.690  H    
     52 H           4.264     2.516    -4.250  H    
     53 H           1.557    -6.058    -7.579  H    
     54 H           0.239    -6.246    -6.413  H    
@<TRIPOS>BOND
     1    1    2 1
     2    2    3 1
     3    3    4 1
     4    3    5 1
     5    3    6 1
     6    6   27 1
     7    6    7 1
     8    7    8 1
     9    8    9 1
    10    9   13 1
    11    9   10 2
    12   10   11 1
    13   10   27 1
    14   11   12 1
    15   12   13 2
    16   12   17 1
    17   13   14 1
    18   14   15 2
    19   14   16 1
    20   17   18 1
    21   18   19 2
    22   18   20 1
    23   20   21 1
    24   21   26 ar
    25   21   22 ar
    26   22   23 ar
    27   23   24 ar
    28   24   25 ar
    29   25   26 ar
    30    1   28 1
    31    1   29 1
    32    1   30 1
    33    2   31 1
    34    2   32 1
    35    4   33 1
    36    4   34 1
    37    4   35 1
    38    5   36 1
    39    5   37 1
    40    5   38 1
    41    6   39 1
    42    7   40 1
    43    7   41 1
    44    8   42 1
    45    8   43 1
    46   16   44 1
    47   16   45 1
    48   17   46 1
    49   20   47 1
    50   22   48 1
    51   23   49 1
    52   24   50 1
    53   25   51 1
    54   26   52 1
    55   27   53 1
    56   27   54 1
@<TRIPOS>MOLECULE
ZINC01120593
 58 61 0 0 0
SMALL
NO_CHARGES


@<TRIPOS>ATOM
      1 C           0.978    -2.527    -3.812  C    
      2 C           2.027    -3.540    -3.813  C    
      3 C           3.340    -3.339    -4.108  C    
      4 C           4.268    -4.497    -4.185  C    
      5 N           3.632    -5.792    -4.004  N    
      6 C           4.172    -6.991    -4.130  C    
      7 O           5.367    -7.140    -4.347  O    
      8 C           3.307    -8.016    -3.926  C    
      9 C           3.507    -9.339    -4.098  C    
     10 C           4.595    -9.962    -4.703  C    
     11 C           5.197   -11.063    -4.046  C    
     12 C           6.299   -11.734    -4.612  C    
     13 C           6.785   -11.332    -5.871  C    
     14 C           6.176   -10.267    -6.554  C    
     15 C           5.070    -9.596    -5.992  C    
     16 O           4.494    -8.586    -6.723  O    
     17 C           3.406    -9.024    -7.556  C    
     18 O           6.856   -12.804    -3.963  O    
     19 C           7.948   -12.439    -3.103  C    
     20 S           1.769    -7.485    -3.392  S    
     21 C           2.338    -5.882    -3.662  C    
     22 N           1.573    -4.777    -3.568  N    
     23 C           5.382    -4.340    -3.194  C    
     24 C           5.132    -4.430    -1.802  C    
     25 C           6.173    -4.279    -0.872  C    
     26 C           7.485    -4.023    -1.313  C    
     27 C           7.753    -3.960    -2.695  C    
     28 C           6.711    -4.109    -3.625  C    
     29 O           8.494    -3.884    -0.404  O    
     30 C           8.725    -2.516    -0.023  C    
     31 C           3.848    -2.086    -4.437  C    
     32 O           4.317    -1.892    -5.690  O    
     33 O           3.998    -1.046    -3.568  O    
     34 C           3.723    -0.963    -2.165  C    
     35 H           0.197    -2.805    -4.526  H    
     36 H           1.327    -1.532    -4.088  H    
     37 H           0.531    -2.464    -2.818  H    
     38 H           4.668    -4.510    -5.204  H    
     39 H           2.808    -9.953    -3.741  H    
     40 H           4.849   -11.373    -3.135  H    
     41 H           7.577   -11.821    -6.295  H    
     42 H           6.532    -9.990    -7.471  H    
     43 H           3.729    -9.784    -8.273  H    
     44 H           3.039    -8.164    -8.115  H    
     45 H           2.581    -9.415    -6.959  H    
     46 H           8.777   -12.009    -3.675  H    
     47 H           8.308   -13.343    -2.609  H    
     48 H           7.632   -11.730    -2.332  H    
     49 H           4.184    -4.604    -1.458  H    
     50 H           5.973    -4.346     0.128  H    
     51 H           8.707    -3.794    -3.025  H    
     52 H           6.929    -4.045    -4.622  H    
     53 H           9.065    -1.924    -0.877  H    
     54 H           9.510    -2.500     0.734  H    
     55 H           7.826    -2.064     0.407  H    
     56 H           2.674    -1.165    -1.954  H    
     57 H           3.958     0.043    -1.825  H    
     58 H           4.344    -1.670    -1.619  H    
@<TRIPOS>BOND
     1    1    2 1
     2    2   22 1
     3    2    3 2
     4    3    4 1
     5    3   31 1
     6    4    5 1
     7    4   23 1
     8    5   21 1
     9    5    6 1
    10    6    7 2
    11    6    8 1
    12    8    9 2
    13    8   20 1
    14    9   10 1
    15   10   15 ar
    16   10   11 ar
    17   11   12 ar
    18   12   13 ar
    19   12   18 1
    20   13   14 ar
    21   14   15 ar
    22   15   16 1
    23   16   17 1
    24   18   19 1
    25   20   21 1
    26   21   22 2
    27   23   28 ar
    28   23   24 ar
    29   24   25 ar
    30   25   26 ar
    31   26   27 ar
    32   26   29 1
    33   27   28 ar
    34   29   30 1
    35   31   32 2
    36   31   33 1
    37   33   34 1
    38    1   35 1
    39    1   36 1
    40    1   37 1
    41    4   38 1
    42    9   39 1
    43   11   40 1
    44   13   41 1
    45   14   42 1
    46   17   43 1
    47   17   44 1
    48   17   45 1
    49   19   46 1
    50   19   47 1
    51   19   48 1
    52   24   49 1
    53   25   50 1
    54   27   51 1
    55   28   52 1
    56   30   53 1
    57   30   54 1
    58   30   55 1
    59   34   56 1
    60   34   57 1
    61   34   58 1
@<TRIPOS>MOLECULE
ZINC01122018
 40 42 0 0 0
SMALL
NO_CHARGES


@<TRIPOS>ATOM
      1 C           5.680   -10.454    -5.442  C    
      2 O           4.856    -9.503    -4.763  O    
      3 C           4.865    -8.152    -4.921  C    
      4 O           5.731    -7.618    -5.815  O    
      5 C           3.984    -7.342    -4.155  C    
      6 C           3.074    -7.927    -3.240  C    
      7 C           2.245    -7.051    -2.526  C    
      8 S           2.685    -5.482    -3.069  S    
      9 C           3.917    -5.931    -4.190  C    
     10 N           4.674    -5.125    -4.981  N    
     11 C           4.800    -3.797    -5.071  C    
     12 S           4.092    -2.676    -3.988  S    
     13 N           5.440    -3.399    -6.172  N    
     14 C           6.206    -2.310    -6.436  C    
     15 C           6.700    -1.365    -5.506  C    
     16 C           7.508    -0.304    -5.955  C    
     17 C           7.837    -0.194    -7.320  C    
     18 C           7.347    -1.162    -8.212  C    
     19 N           6.569    -2.168    -7.741  N    
     20 Cl          8.824     1.065    -7.872  Cl   
     21 C           1.242    -7.364    -1.565  C    
     22 C           1.300    -8.565    -0.809  C    
     23 C           0.311    -8.864     0.146  C    
     24 C          -0.758    -7.976     0.360  C    
     25 C          -0.833    -6.782    -0.384  C    
     26 C           0.160    -6.478    -1.332  C    
     27 H           5.513   -10.403    -6.520  H    
     28 H           5.422   -11.454    -5.092  H    
     29 H           6.731   -10.260    -5.221  H    
     30 H           3.007    -8.937    -3.112  H    
     31 H           5.231    -5.602    -5.612  H    
     32 H           5.372    -4.020    -6.914  H    
     33 H           6.521    -1.457    -4.508  H    
     34 H           7.865     0.377    -5.283  H    
     35 H           7.571    -1.127    -9.208  H    
     36 H           2.072    -9.225    -0.928  H    
     37 H           0.369    -9.728     0.692  H    
     38 H          -1.478    -8.194     1.050  H    
     39 H          -1.609    -6.133    -0.231  H    
     40 H           0.075    -5.607    -1.860  H    
@<TRIPOS>BOND
     1    1    2 1
     2    2    3 1
     3    3    4 2
     4    3    5 1
     5    5    9 2
     6    5    6 1
     7    6    7 2
     8    7    8 1
     9    7   21 1
    10    8    9 1
    11    9   10 1
    12   10   11 1
    13   11   12 2
    14   11   13 1
    15   13   14 1
    16   14   19 ar
    17   14   15 ar
    18   15   16 ar
    19   16   17 ar
    20   17   18 ar
    21   17   20 1
    22   18   19 ar
    23   21   26 ar
    24   21   22 ar
    25   22   23 ar
    26   23   24 ar
    27   24   25 ar
    28   25   26 ar
    29    1   27 1
    30    1   28 1
    31    1   29 1
    32    6   30 1
    33   10   31 1
    34   13   32 1
    35   15   33 1
    36   16   34 1
    37   18   35 1
    38   22   36 1
    39   23   37 1
    40   24   38 1
    41   25   39 1
    42   26   40 1
@<TRIPOS>MOLECULE
ZINC01134900
 59 63 0 0 0
SMALL
NO_CHARGES


@<TRIPOS>ATOM
      1 C          12.739    -1.859    -3.321  C    
      2 C          11.792    -1.981    -4.418  C    
      3 O          11.329    -0.912    -4.803  O    
      4 C          11.398    -3.169    -5.062  C    
      5 C          12.191    -4.346    -5.049  C    
      6 C          11.791    -5.509    -5.736  C    
      7 C          10.574    -5.544    -6.448  C    
      8 C           9.791    -4.371    -6.499  C    
      9 C          10.191    -3.212    -5.811  C    
     10 N          10.135    -6.613    -7.171  N    
     11 C          10.100    -7.909    -6.876  C    
     12 O           9.637    -8.584    -7.784  O    
     13 C          10.490    -8.555    -5.611  C    
     14 C           9.755    -7.972    -4.354  C    
     15 C          10.380    -8.416    -3.125  C    
     16 C          10.101    -9.713    -2.984  C    
     17 C           9.311   -10.107    -4.132  C    
     18 C          10.147   -10.099    -5.454  C    
     19 C          11.280   -11.053    -5.424  C    
     20 O          12.544   -10.688    -5.747  O    
     21 C           8.622    -8.855    -4.293  C    
     22 C           7.300    -8.579    -4.399  C    
     23 C           6.337    -9.588    -4.413  C    
     24 C           6.282   -10.527    -5.472  C    
     25 C           5.310   -11.545    -5.476  C    
     26 C           4.382   -11.636    -4.422  C    
     27 C           4.419   -10.706    -3.369  C    
     28 C           5.386    -9.683    -3.367  C    
     29 C           6.862    -7.267    -4.564  C    
     30 C           6.381    -6.827    -5.822  C    
     31 C           5.986    -5.488    -6.010  C    
     32 C           6.058    -4.576    -4.938  C    
     33 C           6.525    -5.002    -3.681  C    
     34 C           6.927    -6.338    -3.494  C    
     35 O          11.039   -12.369    -5.235  O    
     36 H          13.631    -1.326    -3.666  H    
     37 H          13.050    -2.814    -2.897  H    
     38 H          12.286    -1.286    -2.506  H    
     39 H          13.098    -4.365    -4.584  H    
     40 H          12.427    -6.306    -5.750  H    
     41 H           8.913    -4.362    -7.023  H    
     42 H           9.578    -2.392    -5.859  H    
     43 H           9.693    -6.379    -8.005  H    
     44 H          11.562    -8.403    -5.492  H    
     45 H           9.548    -6.900    -4.360  H    
     46 H          10.779    -7.834    -2.426  H    
     47 H          10.260   -10.256    -2.170  H    
     48 H           8.693   -10.995    -3.974  H    
     49 H           9.491   -10.449    -6.253  H    
     50 H           6.941   -10.469    -6.254  H    
     51 H           5.279   -12.220    -6.245  H    
     52 H           3.680   -12.379    -4.423  H    
     53 H           3.743   -10.772    -2.603  H    
     54 H           5.403    -9.017    -2.589  H    
     55 H           6.334    -7.473    -6.614  H    
     56 H           5.646    -5.178    -6.924  H    
     57 H           5.768    -3.606    -5.074  H    
     58 H           6.579    -4.337    -2.905  H    
     59 H           7.270    -6.631    -2.574  H    
@<TRIPOS>BOND
     1    1    2 1
     2    2    3 2
     3    2    4 1
     4    4    9 ar
     5    4    5 ar
     6    5    6 ar
     7    6    7 ar
     8    7    8 ar
     9    7   10 1
    10    8    9 ar
    11   10   11 1
    12   11   12 2
    13   11   13 1
    14   13   18 1
    15   13   14 1
    16   14   21 1
    17   14   15 1
    18   15   16 2
    19   16   17 1
    20   17   18 1
    21   17   21 1
    22   18   19 1
    23   19   20 2
    24   19   35 1
    25   21   22 2
    26   22   23 1
    27   22   29 1
    28   23   28 ar
    29   23   24 ar
    30   24   25 ar
    31   25   26 ar
    32   26   27 ar
    33   27   28 ar
    34   29   34 ar
    35   29   30 ar
    36   30   31 ar
    37   31   32 ar
    38   32   33 ar
    39   33   34 ar
    40    1   36 1
    41    1   37 1
    42    1   38 1
    43    5   39 1
    44    6   40 1
    45    8   41 1
    46    9   42 1
    47   10   43 1
    48   13   44 1
    49   14   45 1
    50   15   46 1
    51   16   47 1
    52   17   48 1
    53   18   49 1
    54   24   50 1
    55   25   51 1
    56   26   52 1
    57   27   53 1
    58   28   54 1
    59   30   55 1
    60   31   56 1
    61   32   57 1
    62   33   58 1
    63   34   59 1
@<TRIPOS>MOLECULE
ZINC01138759
 63 67 0 0 0
SMALL
NO_CHARGES


@<TRIPOS>ATOM
      1 C           0.010    -9.435    -3.717  C    
      2 O          -0.164    -8.004    -3.769  O    
      3 C           0.966    -7.294    -3.456  C    
      4 C           2.043    -7.175    -4.358  C    
      5 C           3.178    -6.417    -4.014  C    
      6 C           3.249    -5.727    -2.777  C    
      7 C           2.156    -5.859    -1.880  C    
      8 C           1.026    -6.625    -2.220  C    
      9 C           4.345    -4.950    -2.378  C    
     10 C           5.099    -4.092    -3.111  C    
     11 C           6.066    -3.273    -2.490  C    
     12 C           7.380    -3.155    -3.015  C    
     13 C           8.334    -2.322    -2.407  C    
     14 C           7.994    -1.581    -1.263  C    
     15 C           6.703    -1.683    -0.722  C    
     16 C           5.749    -2.518    -1.329  C    
     17 C           4.846    -3.862    -4.434  C    
     18 O           5.585    -4.469    -5.203  O    
     19 N           3.870    -3.057    -4.906  N    
     20 C           2.979    -2.280    -4.058  C    
     21 C           3.122    -0.771    -4.391  C    
     22 C           3.777    -1.376    -6.702  C    
     23 C           3.640    -2.873    -6.330  C    
     24 C           2.955     0.936    -6.198  C    
     25 C           2.345     1.230    -7.524  C    
     26 C           0.960     1.006    -7.732  C    
     27 C           0.361     1.271    -8.982  C    
     28 C           1.162     1.760   -10.027  C    
     29 C           2.518     1.982    -9.840  C    
     30 C           3.126     1.731    -8.596  C    
     31 O           3.104     2.461   -10.954  O    
     32 C           2.036     2.346   -11.914  C    
     33 O           0.772     2.077   -11.278  O    
     34 N           2.891    -0.522    -5.849  N    
     35 H           0.623    -9.779    -4.552  H    
     36 H          -0.970    -9.901    -3.813  H    
     37 H           0.454    -9.763    -2.774  H    
     38 H           2.010    -7.653    -5.264  H    
     39 H           3.959    -6.402    -4.670  H    
     40 H           2.161    -5.376    -0.975  H    
     41 H           0.240    -6.687    -1.566  H    
     42 H           4.543    -4.986    -1.401  H    
     43 H           7.668    -3.692    -3.839  H    
     44 H           9.276    -2.253    -2.801  H    
     45 H           8.687    -0.970    -0.826  H    
     46 H           6.455    -1.144     0.110  H    
     47 H           4.811    -2.554    -0.922  H    
     48 H           1.946    -2.594    -4.241  H    
     49 H           3.152    -2.406    -2.987  H    
     50 H           2.382    -0.222    -3.802  H    
     51 H           4.118    -0.425    -4.095  H    
     52 H           4.825    -1.077    -6.588  H    
     53 H           3.505    -1.264    -7.754  H    
     54 H           4.323    -3.438    -6.970  H    
     55 H           2.631    -3.214    -6.574  H    
     56 H           3.994     1.282    -6.151  H    
     57 H           2.400     1.523    -5.462  H    
     58 H           0.376     0.649    -6.972  H    
     59 H          -0.636     1.108    -9.127  H    
     60 H           4.126     1.908    -8.486  H    
     61 H           1.960     3.272   -12.485  H    
     62 H           2.270     1.536   -12.607  H    
     63 H           1.932    -0.822    -6.037  H    
@<TRIPOS>BOND
     1    1    2 1
     2    2    3 1
     3    3    8 ar
     4    3    4 ar
     5    4    5 ar
     6    5    6 ar
     7    6    7 ar
     8    6    9 1
     9    7    8 ar
    10    9   10 2
    11   10   11 1
    12   10   17 1
    13   11   16 ar
    14   11   12 ar
    15   12   13 ar
    16   13   14 ar
    17   14   15 ar
    18   15   16 ar
    19   17   18 2
    20   17   19 1
    21   19   23 1
    22   19   20 1
    23   20   21 1
    24   21   34 1
    25   22   23 1
    26   22   34 1
    27   24   25 1
    28   24   34 1
    29   25   30 ar
    30   25   26 ar
    31   26   27 ar
    32   27   28 ar
    33   28   33 1
    34   28   29 ar
    35   29   30 ar
    36   29   31 1
    37   31   32 1
    38   32   33 1
    39    1   35 1
    40    1   36 1
    41    1   37 1
    42    4   38 1
    43    5   39 1
    44    7   40 1
    45    8   41 1
    46    9   42 1
    47   12   43 1
    48   13   44 1
    49   14   45 1
    50   15   46 1
    51   16   47 1
    52   20   48 1
    53   20   49 1
    54   21   50 1
    55   21   51 1
    56   22   52 1
    57   22   53 1
    58   23   54 1
    59   23   55 1
    60   24   56 1
    61   24   57 1
    62   26   58 1
    63   27   59 1
    64   30   60 1
    65   32   61 1
    66   32   62 1
    67   34   63 1
@<TRIPOS>MOLECULE
ZINC01145205
 53 56 0 0 0
SMALL
NO_CHARGES


@<TRIPOS>ATOM
      1 C           5.471    -3.506    -0.060  C    
      2 C           5.537    -4.914     0.013  C    
      3 C           4.723    -5.681    -0.841  C    
      4 C           3.869    -5.071    -1.744  C    
      5 C           3.788    -3.672    -1.828  C    
      6 C           4.608    -2.880    -0.992  C    
      7 C           4.542    -1.501    -1.074  C    
      8 C           5.287    -0.731    -1.887  C    
      9 C           6.282    -1.088    -2.731  C    
     10 O           6.683    -2.241    -2.840  O    
     11 N           6.792    -0.083    -3.427  N    
     12 C           6.175     1.064    -3.139  C    
     13 S           6.418     2.579    -3.880  S    
     14 S           4.976     0.948    -1.942  S    
     15 C           7.871    -0.228    -4.383  C    
     16 C           7.349    -0.653    -5.781  C    
     17 C           8.500    -0.839    -6.811  C    
     18 C           8.097    -1.194    -8.163  C    
     19 O           6.911    -1.229    -8.481  O    
     20 N           9.047    -1.460    -9.051  N    
     21 C           8.861    -1.826   -10.427  C    
     22 C           8.769    -0.550   -11.312  C    
     23 C           8.671    -0.904   -12.819  C    
     24 C           9.826    -1.836   -13.270  C    
     25 C           9.925    -3.103   -12.381  C    
     26 C          10.035    -2.741   -10.877  C    
     27 O           3.170    -5.969    -2.456  O    
     28 C           3.791    -7.204    -2.051  C    
     29 O           4.648    -7.021    -0.908  O    
     30 H           6.064    -2.949     0.560  H    
     31 H           6.161    -5.370     0.681  H    
     32 H           3.149    -3.243    -2.502  H    
     33 H           3.829    -1.075    -0.521  H    
     34 H           8.431     0.706    -4.484  H    
     35 H           8.594    -0.965    -4.022  H    
     36 H           6.799    -1.594    -5.686  H    
     37 H           6.654     0.111    -6.143  H    
     38 H           9.075     0.090    -6.868  H    
     39 H           9.164    -1.623    -6.434  H    
     40 H           9.966    -1.410    -8.734  H    
     41 H           7.939    -2.407   -10.534  H    
     42 H           7.890     0.033   -11.024  H    
     43 H           9.651     0.077   -11.147  H    
     44 H           7.713    -1.394   -13.014  H    
     45 H           8.699     0.016   -13.407  H    
     46 H           9.665    -2.135   -14.310  H    
     47 H          10.770    -1.288   -13.224  H    
     48 H           9.042    -3.730   -12.542  H    
     49 H          10.802    -3.685   -12.677  H    
     50 H          10.990    -2.239   -10.699  H    
     51 H          10.028    -3.662   -10.287  H    
     52 H           3.018    -7.938    -1.813  H    
     53 H           4.385    -7.594    -2.883  H    
@<TRIPOS>BOND
     1    1    6 ar
     2    1    2 ar
     3    2    3 ar
     4    3   29 1
     5    3    4 ar
     6    4    5 ar
     7    4   27 1
     8    5    6 ar
     9    6    7 1
    10    7    8 2
    11    8   14 1
    12    8    9 1
    13    9   10 2
    14    9   11 1
    15   11   12 1
    16   11   15 1
    17   12   13 2
    18   12   14 1
    19   15   16 1
    20   16   17 1
    21   17   18 1
    22   18   19 2
    23   18   20 1
    24   20   21 1
    25   21   26 1
    26   21   22 1
    27   22   23 1
    28   23   24 1
    29   24   25 1
    30   25   26 1
    31   27   28 1
    32   28   29 1
    33    1   30 1
    34    2   31 1
    35    5   32 1
    36    7   33 1
    37   15   34 1
    38   15   35 1
    39   16   36 1
    40   16   37 1
    41   17   38 1
    42   17   39 1
    43   20   40 1
    44   21   41 1
    45   22   42 1
    46   22   43 1
    47   23   44 1
    48   23   45 1
    49   24   46 1
    50   24   47 1
    51   25   48 1
    52   25   49 1
    53   26   50 1
    54   26   51 1
    55   28   52 1
    56   28   53 1
@<TRIPOS>MOLECULE
ZINC01162015
 51 53 0 0 0
SMALL
NO_CHARGES


@<TRIPOS>ATOM
      1 C           0.083    -5.187     5.278  C    
      2 C          -0.119    -2.815     4.618  C    
      3 C           1.545    -4.306     3.470  C    
      4 C           1.566    -3.592     2.092  C    
      5 C           2.761    -4.031     1.200  C    
      6 N           2.747    -3.356    -0.075  N    
      7 C           2.208    -3.916    -1.280  C    
      8 C           2.325    -2.798    -2.212  C    
      9 C           2.925    -1.773    -1.559  C    
     10 C           3.142    -2.114    -0.289  C    
     11 O           3.610    -1.360     0.554  O    
     12 O           3.298    -0.709    -2.044  O    
     13 C           1.885    -2.823    -3.493  C    
     14 O           1.285    -3.893    -4.009  O    
     15 C           2.039    -1.778    -4.388  C    
     16 C           1.131    -0.693    -4.386  C    
     17 C           1.291     0.364    -5.302  C    
     18 C           2.361     0.352    -6.225  C    
     19 C           3.266    -0.731    -6.228  C    
     20 C           3.110    -1.793    -5.317  C    
     21 Cl          2.556     1.637    -7.323  Cl   
     22 C           2.949    -5.144    -1.720  C    
     23 C           2.272    -6.382    -1.838  C    
     24 C           2.985    -7.527    -2.241  C    
     25 N           4.312    -7.442    -2.520  N    
     26 C           4.999    -6.275    -2.416  C    
     27 C           4.336    -5.100    -2.014  C    
     28 N           0.218    -4.199     4.169  N    
     29 H           0.831    -5.011     6.055  H    
     30 H           0.205    -6.203     4.898  H    
     31 H          -0.910    -5.128     5.726  H    
     32 H          -1.089    -2.802     5.123  H    
     33 H          -0.198    -2.141     3.764  H    
     34 H           0.636    -2.424     5.306  H    
     35 H           1.768    -5.363     3.295  H    
     36 H           2.346    -3.903     4.099  H    
     37 H           0.635    -3.816     1.558  H    
     38 H           1.620    -2.508     2.243  H    
     39 H           3.711    -3.831     1.707  H    
     40 H           2.694    -5.113     1.044  H    
     41 H           1.144    -4.119    -1.110  H    
     42 H           1.033    -4.460    -3.250  H    
     43 H           0.345    -0.668    -3.724  H    
     44 H           0.626     1.141    -5.297  H    
     45 H           4.042    -0.749    -6.895  H    
     46 H           3.779    -2.572    -5.334  H    
     47 H           1.274    -6.457    -1.630  H    
     48 H           2.510    -8.427    -2.329  H    
     49 H           5.996    -6.256    -2.636  H    
     50 H           4.863    -4.230    -1.937  H    
     51 H          -0.489    -4.455     3.477  H    
@<TRIPOS>BOND
     1    1   28 1
     2    2   28 1
     3    3    4 1
     4    3   28 1
     5    4    5 1
     6    5    6 1
     7    6   10 1
     8    6    7 1
     9    7   22 1
    10    7    8 1
    11    8    9 1
    12    8   13 2
    13    9   10 1
    14    9   12 2
    15   10   11 2
    16   13   15 1
    17   13   14 1
    18   15   20 ar
    19   15   16 ar
    20   16   17 ar
    21   17   18 ar
    22   18   19 ar
    23   18   21 1
    24   19   20 ar
    25   22   27 ar
    26   22   23 ar
    27   23   24 ar
    28   24   25 ar
    29   25   26 ar
    30   26   27 ar
    31    1   29 1
    32    1   30 1
    33    1   31 1
    34    2   32 1
    35    2   33 1
    36    2   34 1
    37    3   35 1
    38    3   36 1
    39    4   37 1
    40    4   38 1
    41    5   39 1
    42    5   40 1
    43    7   41 1
    44   14   42 1
    45   16   43 1
    46   17   44 1
    47   19   45 1
    48   20   46 1
    49   23   47 1
    50   24   48 1
    51   26   49 1
    52   27   50 1
    53   28   51 1
@<TRIPOS>MOLECULE
ZINC01168630
 40 42 0 0 0
SMALL
NO_CHARGES


@<TRIPOS>ATOM
      1 C          -1.376    -9.349    -4.744  C    
      2 C          -0.965    -8.333    -3.745  C    
      3 C          -0.184    -7.221    -4.149  C    
      4 C           0.207    -6.224    -3.229  C    
      5 C          -0.203    -6.329    -1.882  C    
      6 C          -0.949    -7.441    -1.459  C    
      7 C          -1.342    -8.439    -2.379  C    
      8 Cl         -2.277    -9.728    -1.782  Cl   
      9 O           0.909    -5.143    -3.703  O    
     10 C           2.284    -5.060    -3.274  C    
     11 C           2.984    -4.091    -4.094  C    
     12 N           4.033    -4.392    -4.759  N    
     13 N           4.533    -3.448    -5.421  N    
     14 C           3.853    -2.297    -5.297  C    
     15 S           2.494    -2.460    -4.237  S    
     16 N           4.142    -1.122    -5.909  N    
     17 C           5.171    -0.847    -6.703  C    
     18 O           6.018    -1.693    -6.968  O    
     19 N           5.210     0.372    -7.228  N    
     20 C           6.145     0.948    -8.052  C    
     21 C           7.513     0.580    -8.113  C    
     22 C           8.399     1.253    -8.975  C    
     23 C           7.937     2.309    -9.782  C    
     24 C           6.583     2.698    -9.718  C    
     25 C           5.700     2.023    -8.852  C    
     26 Cl          6.025     3.975   -10.682  Cl   
     27 H          -0.961   -10.320    -4.472  H    
     28 H          -1.032    -9.105    -5.753  H    
     29 H          -2.464    -9.420    -4.771  H    
     30 H           0.110    -7.127    -5.122  H    
     31 H           0.048    -5.600    -1.211  H    
     32 H          -1.212    -7.515    -0.470  H    
     33 H           2.329    -4.735    -2.232  H    
     34 H           2.778    -6.039    -3.355  H    
     35 H           3.519    -0.393    -5.745  H    
     36 H           4.433     0.926    -7.039  H    
     37 H           7.887    -0.161    -7.513  H    
     38 H           9.385     0.980    -9.007  H    
     39 H           8.589     2.794   -10.401  H    
     40 H           4.718     2.316    -8.814  H    
@<TRIPOS>BOND
     1    1    2 1
     2    2    7 ar
     3    2    3 ar
     4    3    4 ar
     5    4    5 ar
     6    4    9 1
     7    5    6 ar
     8    6    7 ar
     9    7    8 1
    10    9   10 1
    11   10   11 1
    12   11   15 1
    13   11   12 2
    14   12   13 1
    15   13   14 2
    16   14   15 1
    17   14   16 1
    18   16   17 1
    19   17   18 2
    20   17   19 1
    21   19   20 1
    22   20   25 ar
    23   20   21 ar
    24   21   22 ar
    25   22   23 ar
    26   23   24 ar
    27   24   25 ar
    28   24   26 1
    29    1   27 1
    30    1   28 1
    31    1   29 1
    32    3   30 1
    33    5   31 1
    34    6   32 1
    35   10   33 1
    36   10   34 1
    37   16   35 1
    38   19   36 1
    39   21   37 1
    40   22   38 1
    41   23   39 1
    42   25   40 1
@<TRIPOS>MOLECULE
ZINC01171462
 54 56 0 0 0
SMALL
NO_CHARGES


@<TRIPOS>ATOM
      1 C           4.373    -1.221     1.323  C    
      2 C           5.541    -0.353     1.034  C    
      3 C           6.614    -0.227     1.945  C    
      4 C           7.714     0.598     1.642  C    
      5 C           7.755     1.300     0.424  C    
      6 C           6.695     1.186    -0.501  C    
      7 C           5.590     0.361    -0.185  C    
      8 N           6.737     1.864    -1.686  N    
      9 C           7.604     1.438    -2.756  C    
     10 C           6.935     0.525    -3.666  C    
     11 O           6.548    -0.545    -3.216  O    
     12 N           6.887     0.801    -4.963  N    
     13 C           6.353     0.084    -5.963  C    
     14 C           5.216    -0.623    -6.055  C    
     15 N           5.116    -1.081    -7.280  N    
     16 N           6.098    -0.618    -7.982  N    
     17 C           6.872     0.100    -7.191  C    
     18 O           7.881     0.713    -7.522  O    
     19 C           6.301    -0.748    -9.338  C    
     20 C           5.328    -0.282   -10.250  C    
     21 C           5.525    -0.420   -11.636  C    
     22 C           6.696    -1.027   -12.125  C    
     23 C           7.673    -1.492   -11.225  C    
     24 C           7.478    -1.351    -9.839  C    
     25 C           4.207    -2.082    -7.688  C    
     26 C           4.174    -0.676    -5.035  C    
     27 S           5.738     3.220    -1.878  S    
     28 O           5.207     3.700    -0.457  O    
     29 O           6.591     4.462    -2.388  O    
     30 C           4.301     2.981    -2.932  C    
     31 H           3.459    -0.625     1.306  H    
     32 H           4.451    -1.702     2.299  H    
     33 H           4.300    -2.000     0.559  H    
     34 H           6.605    -0.736     2.832  H    
     35 H           8.486     0.685     2.308  H    
     36 H           8.558     1.900     0.217  H    
     37 H           4.820     0.275    -0.857  H    
     38 H           7.981     2.312    -3.291  H    
     39 H           8.489     0.932    -2.357  H    
     40 H           7.396     1.583    -5.238  H    
     41 H           4.475     0.167    -9.906  H    
     42 H           4.817    -0.081   -12.290  H    
     43 H           6.838    -1.129   -13.131  H    
     44 H           8.523    -1.937   -11.581  H    
     45 H           8.191    -1.701    -9.195  H    
     46 H           4.177    -2.896    -6.958  H    
     47 H           4.469    -2.530    -8.648  H    
     48 H           3.207    -1.659    -7.784  H    
     49 H           4.407    -1.455    -4.307  H    
     50 H           3.196    -0.900    -5.466  H    
     51 H           4.088     0.287    -4.524  H    
     52 H           4.623     2.750    -3.950  H    
     53 H           3.700     3.891    -2.943  H    
     54 H           3.703     2.156    -2.546  H    
@<TRIPOS>BOND
     1    1    2 1
     2    2    7 ar
     3    2    3 ar
     4    3    4 ar
     5    4    5 ar
     6    5    6 ar
     7    6    7 ar
     8    6    8 1
     9    8    9 1
    10    8   27 1
    11    9   10 1
    12   10   11 2
    13   10   12 1
    14   12   13 1
    15   13   17 1
    16   13   14 2
    17   14   15 1
    18   14   26 1
    19   15   16 1
    20   15   25 1
    21   16   17 1
    22   16   19 1
    23   17   18 2
    24   19   24 ar
    25   19   20 ar
    26   20   21 ar
    27   21   22 ar
    28   22   23 ar
    29   23   24 ar
    30   27   28 2
    31   27   29 2
    32   27   30 1
    33    1   31 1
    34    1   32 1
    35    1   33 1
    36    3   34 1
    37    4   35 1
    38    5   36 1
    39    7   37 1
    40    9   38 1
    41    9   39 1
    42   12   40 1
    43   20   41 1
    44   21   42 1
    45   22   43 1
    46   23   44 1
    47   24   45 1
    48   25   46 1
    49   25   47 1
    50   25   48 1
    51   26   49 1
    52   26   50 1
    53   26   51 1
    54   30   52 1
    55   30   53 1
    56   30   54 1
@<TRIPOS>MOLECULE
ZINC01190219
 35 36 0 0 0
SMALL
NO_CHARGES


@<TRIPOS>ATOM
      1 C          -1.739    -4.399    -3.171  C    
      2 C          -0.646    -4.472    -3.948  C    
      3 N          -0.241    -5.645    -4.341  N    
      4 O           0.810    -5.840    -5.044  O    
      5 C           1.269    -7.056    -5.434  C    
      6 O           0.582    -8.175    -5.105  O    
      7 N           2.387    -7.061    -6.194  N    
      8 C           3.073    -8.120    -6.720  C    
      9 C           3.084    -9.428    -6.178  C    
     10 C           3.843   -10.448    -6.778  C    
     11 C           4.613   -10.175    -7.922  C    
     12 C           4.631    -8.875    -8.461  C    
     13 C           3.871    -7.856    -7.856  C    
     14 Cl          5.567    -8.539    -9.830  Cl   
     15 C           0.017    -3.333    -4.300  C    
     16 O          -0.482    -2.710    -5.229  O    
     17 C           1.228    -2.911    -3.722  C    
     18 C           1.927    -1.787    -4.239  C    
     19 C           3.141    -1.356    -3.677  C    
     20 C           3.690    -2.036    -2.576  C    
     21 C           3.020    -3.148    -2.042  C    
     22 C           1.804    -3.577    -2.606  C    
     23 Br          5.285    -1.452    -1.818  Br   
     24 H          -2.232    -5.219    -2.901  H    
     25 H          -2.082    -3.526    -2.841  H    
     26 H          -0.736    -6.395    -4.078  H    
     27 H           2.717    -6.184    -6.446  H    
     28 H           2.566    -9.648    -5.327  H    
     29 H           3.843   -11.389    -6.377  H    
     30 H           5.163   -10.921    -8.350  H    
     31 H           3.892    -6.913    -8.255  H    
     32 H           1.561    -1.266    -5.040  H    
     33 H           3.623    -0.544    -4.068  H    
     34 H           3.412    -3.644    -1.239  H    
     35 H           1.345    -4.386    -2.183  H    
@<TRIPOS>BOND
     1    1    2 2
     2    2   15 1
     3    2    3 1
     4    3    4 1
     5    4    5 1
     6    5    6 2
     7    5    7 1
     8    7    8 1
     9    8   13 ar
    10    8    9 ar
    11    9   10 ar
    12   10   11 ar
    13   11   12 ar
    14   12   13 ar
    15   12   14 1
    16   15   16 2
    17   15   17 1
    18   17   22 ar
    19   17   18 ar
    20   18   19 ar
    21   19   20 ar
    22   20   21 ar
    23   20   23 1
    24   21   22 ar
    25    1   24 1
    26    1   25 1
    27    3   26 1
    28    7   27 1
    29    9   28 1
    30   10   29 1
    31   11   30 1
    32   13   31 1
    33   18   32 1
    34   19   33 1
    35   21   34 1
    36   22   35 1
@<TRIPOS>MOLECULE
ZINC01208385
 44 47 0 0 0
SMALL
NO_CHARGES


@<TRIPOS>ATOM
      1 C          -1.112    -7.876    -4.726  C    
      2 C          -1.082    -7.939    -6.140  C    
      3 C          -0.469    -6.909    -6.886  C    
      4 C           0.109    -5.831    -6.193  C    
      5 C           0.085    -5.755    -4.790  C    
      6 C          -0.528    -6.783    -4.049  C    
      7 N           0.694    -4.662    -4.264  N    
      8 C           1.234    -3.802    -5.164  C    
      9 S           0.949    -4.440    -6.744  S    
     10 C           1.945    -2.619    -4.846  C    
     11 C           3.135    -2.323    -5.552  C    
     12 C           3.932    -1.192    -5.244  C    
     13 C           3.484    -0.330    -4.222  C    
     14 C           2.300    -0.596    -3.515  C    
     15 C           1.533    -1.740    -3.808  C    
     16 Cl          0.103    -1.960    -2.918  Cl   
     17 N           5.141    -0.866    -5.807  N    
     18 C           5.862    -1.445    -6.759  C    
     19 O           5.484    -2.425    -7.384  O    
     20 C           7.195    -0.956    -7.043  C    
     21 O           7.280    -0.579    -8.434  O    
     22 C           8.558    -0.274    -8.841  C    
     23 C           8.978     1.072    -8.714  C    
     24 C          10.282     1.452    -9.074  C    
     25 C          11.176     0.490    -9.573  C    
     26 C          10.757    -0.844    -9.727  C    
     27 C           9.439    -1.257    -9.384  C    
     28 N           9.061    -2.556    -9.585  N    
     29 O           7.943    -2.956    -9.394  O    
     30 O           9.886    -3.464   -10.039  O    
     31 H          -1.554    -8.627    -4.191  H    
     32 H          -1.502    -8.735    -6.625  H    
     33 H          -0.437    -6.949    -7.910  H    
     34 H          -0.542    -6.739    -3.027  H    
     35 H           3.444    -2.976    -6.268  H    
     36 H           4.023     0.503    -3.975  H    
     37 H           2.000     0.054    -2.783  H    
     38 H           5.564    -0.085    -5.409  H    
     39 H           7.443    -0.102    -6.406  H    
     40 H           7.900    -1.766    -6.810  H    
     41 H           8.336     1.777    -8.348  H    
     42 H          10.582     2.425    -8.970  H    
     43 H          12.127     0.764    -9.833  H    
     44 H          11.432    -1.513   -10.107  H    
@<TRIPOS>BOND
     1    1    6 ar
     2    1    2 ar
     3    2    3 ar
     4    3    4 ar
     5    4    9 1
     6    4    5 ar
     7    5    6 ar
     8    5    7 1
     9    7    8 2
    10    8    9 1
    11    8   10 1
    12   10   15 ar
    13   10   11 ar
    14   11   12 ar
    15   12   13 ar
    16   12   17 1
    17   13   14 ar
    18   14   15 ar
    19   15   16 1
    20   17   18 1
    21   18   19 2
    22   18   20 1
    23   20   21 1
    24   21   22 1
    25   22   27 ar
    26   22   23 ar
    27   23   24 ar
    28   24   25 ar
    29   25   26 ar
    30   26   27 ar
    31   27   28 1
    32   28   29 2
    33   28   30 1
    34    1   31 1
    35    2   32 1
    36    3   33 1
    37    6   34 1
    38   11   35 1
    39   13   36 1
    40   14   37 1
    41   17   38 1
    42   20   39 1
    43   20   40 1
    44   23   41 1
    45   24   42 1
    46   25   43 1
    47   26   44 1
@<TRIPOS>MOLECULE
ZINC01209117
 44 46 0 0 0
SMALL
NO_CHARGES


@<TRIPOS>ATOM
      1 C          -2.603    -8.431    -4.203  C    
      2 O          -1.296    -8.631    -3.630  O    
      3 C          -0.469    -7.538    -3.619  C    
      4 C          -0.062    -6.864    -4.789  C    
      5 C           0.834    -5.781    -4.717  C    
      6 C           1.388    -5.353    -3.479  C    
      7 C           0.973    -6.060    -2.315  C    
      8 C           0.067    -7.134    -2.384  C    
      9 C           2.301    -4.284    -3.395  C    
     10 O           2.739    -3.974    -2.299  O    
     11 N           2.755    -3.656    -4.478  N    
     12 C           3.656    -2.626    -4.625  C    
     13 C           4.033    -1.711    -3.617  C    
     14 C           4.958    -0.688    -3.885  C    
     15 C           5.516    -0.558    -5.166  C    
     16 C           5.164    -1.444    -6.214  C    
     17 C           4.221    -2.465    -5.911  C    
     18 C           5.711    -1.312    -7.500  C    
     19 O           5.198    -1.915    -8.434  O    
     20 N           6.836    -0.628    -7.701  N    
     21 C           7.514    -0.373    -8.863  C    
     22 C           6.900    -0.226   -10.129  C    
     23 C           7.668     0.070   -11.269  C    
     24 C           9.060     0.229   -11.155  C    
     25 C           9.683     0.108    -9.900  C    
     26 C           8.911    -0.176    -8.759  C    
     27 Cl         11.358     0.304    -9.763  Cl   
     28 H          -3.109    -7.551    -3.791  H    
     29 H          -3.205    -9.310    -3.978  H    
     30 H          -2.536    -8.339    -5.294  H    
     31 H          -0.417    -7.161    -5.699  H    
     32 H           1.077    -5.314    -5.593  H    
     33 H           1.331    -5.802    -1.389  H    
     34 H          -0.200    -7.629    -1.525  H    
     35 H           2.441    -4.017    -5.320  H    
     36 H           3.622    -1.751    -2.687  H    
     37 H           5.221    -0.027    -3.150  H    
     38 H           6.167     0.214    -5.326  H    
     39 H           3.940    -3.123    -6.643  H    
     40 H           7.287    -0.325    -6.899  H    
     41 H           5.888    -0.299   -10.232  H    
     42 H           7.213     0.183   -12.181  H    
     43 H           9.611     0.442   -11.986  H    
     44 H           9.374    -0.255    -7.851  H    
@<TRIPOS>BOND
     1    1    2 1
     2    2    3 1
     3    3    8 ar
     4    3    4 ar
     5    4    5 ar
     6    5    6 ar
     7    6    7 ar
     8    6    9 1
     9    7    8 ar
    10    9   10 2
    11    9   11 1
    12   11   12 1
    13   12   17 ar
    14   12   13 ar
    15   13   14 ar
    16   14   15 ar
    17   15   16 ar
    18   16   17 ar
    19   16   18 1
    20   18   19 2
    21   18   20 1
    22   20   21 1
    23   21   26 ar
    24   21   22 ar
    25   22   23 ar
    26   23   24 ar
    27   24   25 ar
    28   25   26 ar
    29   25   27 1
    30    1   28 1
    31    1   29 1
    32    1   30 1
    33    4   31 1
    34    5   32 1
    35    7   33 1
    36    8   34 1
    37   11   35 1
    38   13   36 1
    39   14   37 1
    40   15   38 1
    41   17   39 1
    42   20   40 1
    43   22   41 1
    44   23   42 1
    45   24   43 1
    46   26   44 1
@<TRIPOS>MOLECULE
ZINC01209887
 46 48 0 0 0
SMALL
NO_CHARGES


@<TRIPOS>ATOM
      1 C           0.575    -5.818    -3.063  C    
      2 C           1.077    -4.749    -2.162  C    
      3 C           0.232    -4.088    -1.253  C    
      4 C           0.741    -3.075    -0.419  C    
      5 C           2.104    -2.698    -0.469  C    
      6 C           2.972    -3.352    -1.376  C    
      7 C           2.437    -4.373    -2.212  C    
      8 O           4.295    -2.942    -1.386  O    
      9 C           5.272    -3.538    -2.256  C    
     10 C           6.596    -2.967    -2.107  C    
     11 O           6.834    -2.068    -1.309  O    
     12 N           7.536    -3.475    -2.885  N    
     13 N           8.762    -3.135    -2.925  N    
     14 C           9.644    -3.671    -3.698  C    
     15 C          10.964    -3.313    -3.739  C    
     16 C          11.713    -2.345    -3.040  C    
     17 C          13.089    -2.206    -3.319  C    
     18 C          13.705    -3.019    -4.291  C    
     19 C          12.951    -3.987    -4.983  C    
     20 C          11.581    -4.132    -4.686  C    
     21 N          10.646    -4.973    -5.193  N    
     22 C           9.495    -4.671    -4.603  C    
     23 O           8.442    -5.245    -4.850  O    
     24 C          10.858    -5.966    -6.208  C    
     25 C          11.415    -7.111    -5.716  C    
     26 C          11.930    -8.106    -5.300  C    
     27 C           2.551    -1.611     0.450  C    
     28 H           0.730    -5.514    -4.101  H    
     29 H          -0.489    -6.028    -2.922  H    
     30 H           1.133    -6.737    -2.874  H    
     31 H          -0.758    -4.333    -1.188  H    
     32 H           0.095    -2.616     0.224  H    
     33 H           3.038    -4.864    -2.875  H    
     34 H           5.337    -4.611    -2.042  H    
     35 H           4.958    -3.399    -3.297  H    
     36 H           7.248    -4.183    -3.478  H    
     37 H          11.277    -1.745    -2.337  H    
     38 H          13.649    -1.511    -2.815  H    
     39 H          14.701    -2.910    -4.494  H    
     40 H          13.402    -4.573    -5.686  H    
     41 H           9.920    -6.282    -6.668  H    
     42 H          11.502    -5.577    -7.006  H    
     43 H          12.372    -8.782    -4.846  H    
     44 H           1.982    -0.704     0.231  H    
     45 H           3.613    -1.369     0.363  H    
     46 H           2.359    -1.916     1.480  H    
@<TRIPOS>BOND
     1    1    2 1
     2    2    7 ar
     3    2    3 ar
     4    3    4 ar
     5    4    5 ar
     6    5    6 ar
     7    5   27 1
     8    6    7 ar
     9    6    8 1
    10    8    9 1
    11    9   10 1
    12   10   11 2
    13   10   12 1
    14   12   13 1
    15   13   14 2
    16   14   22 1
    17   14   15 1
    18   15   20 ar
    19   15   16 ar
    20   16   17 ar
    21   17   18 ar
    22   18   19 ar
    23   19   20 ar
    24   20   21 1
    25   21   22 1
    26   21   24 1
    27   22   23 2
    28   24   25 1
    29   25   26 3
    30    1   28 1
    31    1   29 1
    32    1   30 1
    33    3   31 1
    34    4   32 1
    35    7   33 1
    36    9   34 1
    37    9   35 1
    38   12   36 1
    39   16   37 1
    40   17   38 1
    41   18   39 1
    42   19   40 1
    43   24   41 1
    44   24   42 1
    45   26   43 1
    46   27   44 1
    47   27   45 1
    48   27   46 1
@<TRIPOS>MOLECULE
ZINC01216583
 50 52 0 0 0
SMALL
NO_CHARGES


@<TRIPOS>ATOM
      1 C           6.891    -2.493    -2.410  C    
      2 C           6.548    -3.537    -3.511  C    
      3 C           7.654    -4.624    -3.595  C    
      4 C           5.129    -4.149    -3.277  C    
      5 N           4.672    -5.008    -4.374  N    
      6 C           4.184    -4.454    -5.580  C    
      7 C           4.061    -3.055    -5.823  C    
      8 C           3.566    -2.551    -7.038  C    
      9 C           3.178    -3.432    -8.054  C    
     10 C           3.283    -4.815    -7.851  C    
     11 C           3.772    -5.339    -6.626  C    
     12 C           3.857    -6.724    -6.406  C    
     13 C           4.331    -7.219    -5.239  C    
     14 C           4.728    -6.355    -4.235  C    
     15 O           5.157    -6.857    -3.197  O    
     16 C           4.368    -8.565    -5.050  C    
     17 O           5.409    -9.161    -5.296  O    
     18 N           3.248    -9.165    -4.661  N    
     19 C           2.997   -10.491    -4.428  C    
     20 C           3.988   -11.356    -3.898  C    
     21 C           3.707   -12.713    -3.657  C    
     22 C           2.428   -13.222    -3.934  C    
     23 C           1.426   -12.375    -4.438  C    
     24 C           1.694   -11.007    -4.671  C    
     25 S           0.418   -10.003    -5.342  S    
     26 O          -0.991   -10.747    -5.309  O    
     27 O           0.291    -8.658    -4.498  O    
     28 N           0.777    -9.607    -6.937  N    
     29 O           3.449    -7.570    -7.362  O    
     30 H           6.924    -2.969    -1.426  H    
     31 H           6.139    -1.698    -2.391  H    
     32 H           7.863    -2.035    -2.612  H    
     33 H           6.555    -3.001    -4.465  H    
     34 H           8.629    -4.160    -3.765  H    
     35 H           7.457    -5.303    -4.427  H    
     36 H           7.694    -5.201    -2.668  H    
     37 H           5.155    -4.669    -2.313  H    
     38 H           4.392    -3.359    -3.112  H    
     39 H           4.327    -2.368    -5.121  H    
     40 H           3.493    -1.542    -7.188  H    
     41 H           2.823    -3.065    -8.940  H    
     42 H           2.996    -5.428    -8.615  H    
     43 H           2.477    -8.584    -4.602  H    
     44 H           4.918   -11.008    -3.658  H    
     45 H           4.431   -13.328    -3.275  H    
     46 H           2.224   -14.209    -3.762  H    
     47 H           0.504   -12.765    -4.631  H    
     48 H           0.090    -9.219    -7.494  H    
     49 H           1.589    -9.949    -7.339  H    
     50 H           2.647    -7.161    -7.761  H    
@<TRIPOS>BOND
     1    1    2 1
     2    2    3 1
     3    2    4 1
     4    4    5 1
     5    5   14 1
     6    5    6 1
     7    6   11 ar
     8    6    7 ar
     9    7    8 ar
    10    8    9 ar
    11    9   10 ar
    12   10   11 ar
    13   11   12 1
    14   12   13 2
    15   12   29 1
    16   13   14 1
    17   13   16 1
    18   14   15 2
    19   16   17 2
    20   16   18 1
    21   18   19 1
    22   19   24 ar
    23   19   20 ar
    24   20   21 ar
    25   21   22 ar
    26   22   23 ar
    27   23   24 ar
    28   24   25 1
    29   25   26 2
    30   25   27 2
    31   25   28 1
    32    1   30 1
    33    1   31 1
    34    1   32 1
    35    2   33 1
    36    3   34 1
    37    3   35 1
    38    3   36 1
    39    4   37 1
    40    4   38 1
    41    7   39 1
    42    8   40 1
    43    9   41 1
    44   10   42 1
    45   18   43 1
    46   20   44 1
    47   21   45 1
    48   22   46 1
    49   23   47 1
    50   28   48 1
    51   28   49 1
    52   29   50 1
@<TRIPOS>MOLECULE
ZINC01221347
 55 58 0 0 0
SMALL
NO_CHARGES


@<TRIPOS>ATOM
      1 C           6.018   -14.616   -11.333  C    
      2 C           6.374   -13.305   -10.741  C    
      3 C           7.713   -12.971   -10.435  C    
      4 C           8.026   -11.714    -9.877  C    
      5 C           7.013   -10.760    -9.610  C    
      6 C           5.675   -11.106    -9.920  C    
      7 C           5.360   -12.360   -10.477  C    
      8 C           7.299    -9.485    -9.054  C    
      9 C           8.534    -8.864    -8.870  C    
     10 C           8.299    -7.614    -8.315  C    
     11 C           6.922    -7.483    -8.151  C    
     12 O           6.348    -8.622    -8.611  O    
     13 C           6.272    -6.368    -7.630  C    
     14 C           4.967    -6.276    -7.282  C    
     15 C           4.135    -7.349    -7.371  C    
     16 O           3.515    -7.410    -8.428  O    
     17 N           3.997    -8.290    -6.413  N    
     18 C           4.671    -8.231    -5.123  C    
     19 C           5.476    -9.537    -4.892  C    
     20 O           4.630   -10.694    -5.057  O    
     21 C           3.978   -10.749    -6.344  C    
     22 C           3.154    -9.463    -6.604  C    
     23 N           4.337    -5.175    -6.825  N    
     24 C           4.758    -3.970    -6.446  C    
     25 O           5.954    -3.697    -6.384  O    
     26 C           3.835    -2.992    -6.057  C    
     27 C           2.601    -3.332    -5.434  C    
     28 C           1.694    -2.335    -5.021  C    
     29 C           1.997    -0.978    -5.232  C    
     30 C           3.208    -0.616    -5.851  C    
     31 C           4.119    -1.613    -6.251  C    
     32 H           5.322   -15.144   -10.678  H    
     33 H           6.895   -15.253   -11.478  H    
     34 H           5.544   -14.466   -12.303  H    
     35 H           8.469   -13.636   -10.616  H    
     36 H           9.005   -11.514    -9.660  H    
     37 H           4.911   -10.445    -9.752  H    
     38 H           4.381   -12.576   -10.698  H    
     39 H           9.455    -9.240    -9.101  H    
     40 H           9.014    -6.925    -8.072  H    
     41 H           6.841    -5.562    -7.522  H    
     42 H           5.356    -7.388    -5.011  H    
     43 H           3.920    -8.142    -4.333  H    
     44 H           6.329    -9.587    -5.577  H    
     45 H           5.863    -9.544    -3.870  H    
     46 H           4.727   -10.883    -7.128  H    
     47 H           3.313   -11.615    -6.359  H    
     48 H           2.324    -9.422    -5.891  H    
     49 H           2.717    -9.541    -7.602  H    
     50 H           3.372    -5.277    -6.773  H    
     51 H           2.360    -4.312    -5.246  H    
     52 H           0.817    -2.595    -4.561  H    
     53 H           1.343    -0.249    -4.928  H    
     54 H           3.425     0.373    -6.012  H    
     55 H           4.994    -1.318    -6.701  H    
@<TRIPOS>BOND
     1    1    2 1
     2    2    7 ar
     3    2    3 ar
     4    3    4 ar
     5    4    5 ar
     6    5    6 ar
     7    5    8 1
     8    6    7 ar
     9    8   12 1
    10    8    9 2
    11    9   10 1
    12   10   11 2
    13   11   12 1
    14   11   13 1
    15   13   14 2
    16   14   15 1
    17   14   23 1
    18   15   16 2
    19   15   17 1
    20   17   22 1
    21   17   18 1
    22   18   19 1
    23   19   20 1
    24   20   21 1
    25   21   22 1
    26   23   24 1
    27   24   25 2
    28   24   26 1
    29   26   31 ar
    30   26   27 ar
    31   27   28 ar
    32   28   29 ar
    33   29   30 ar
    34   30   31 ar
    35    1   32 1
    36    1   33 1
    37    1   34 1
    38    3   35 1
    39    4   36 1
    40    6   37 1
    41    7   38 1
    42    9   39 1
    43   10   40 1
    44   13   41 1
    45   18   42 1
    46   18   43 1
    47   19   44 1
    48   19   45 1
    49   21   46 1
    50   21   47 1
    51   22   48 1
    52   22   49 1
    53   23   50 1
    54   27   51 1
    55   28   52 1
    56   29   53 1
    57   30   54 1
    58   31   55 1
@<TRIPOS>MOLECULE
ZINC01227518
 38 39 0 0 0
SMALL
NO_CHARGES


@<TRIPOS>ATOM
      1 C           1.991     7.812    -2.018  C    
      2 C           2.797     6.636    -2.599  C    
      3 O           1.898     5.747    -3.287  O    
      4 C           2.525     4.672    -3.855  C    
      5 C           2.711     3.483    -3.123  C    
      6 C           3.330     2.370    -3.723  C    
      7 C           3.773     2.424    -5.068  C    
      8 C           3.543     3.609    -5.803  C    
      9 C           2.926     4.724    -5.204  C    
     10 N           4.369     1.393    -5.743  N    
     11 C           5.065     0.356    -5.289  C    
     12 O           5.333     0.227    -4.100  O    
     13 C           5.593    -0.579    -6.273  C    
     14 C           6.346    -1.747    -5.730  C    
     15 C           5.671    -2.753    -5.004  C    
     16 C           6.370    -3.858    -4.485  C    
     17 C           7.768    -4.002    -4.674  C    
     18 C           8.435    -2.991    -5.409  C    
     19 C           7.738    -1.885    -5.929  C    
     20 N           8.441    -5.075    -4.165  N    
     21 O           9.627    -5.228    -4.309  O    
     22 O           7.844    -6.016    -3.483  O    
     23 H           1.507     8.372    -2.825  H    
     24 H           2.657     8.487    -1.473  H    
     25 H           1.223     7.440    -1.334  H    
     26 H           3.551     7.035    -3.284  H    
     27 H           3.301     6.117    -1.779  H    
     28 H           2.393     3.426    -2.154  H    
     29 H           3.426     1.516    -3.173  H    
     30 H           3.834     3.675    -6.784  H    
     31 H           2.775     5.575    -5.752  H    
     32 H           4.320     1.457    -6.711  H    
     33 H           4.761    -0.966    -6.867  H    
     34 H           6.231    -0.010    -6.956  H    
     35 H           4.661    -2.684    -4.848  H    
     36 H           5.842    -4.560    -3.964  H    
     37 H           9.443    -3.049    -5.572  H    
     38 H           8.258    -1.176    -6.450  H    
@<TRIPOS>BOND
     1    1    2 1
     2    2    3 1
     3    3    4 1
     4    4    9 ar
     5    4    5 ar
     6    5    6 ar
     7    6    7 ar
     8    7    8 ar
     9    7   10 1
    10    8    9 ar
    11   10   11 1
    12   11   12 2
    13   11   13 1
    14   13   14 1
    15   14   19 ar
    16   14   15 ar
    17   15   16 ar
    18   16   17 ar
    19   17   18 ar
    20   17   20 1
    21   18   19 ar
    22   20   21 2
    23   20   22 1
    24    1   23 1
    25    1   24 1
    26    1   25 1
    27    2   26 1
    28    2   27 1
    29    5   28 1
    30    6   29 1
    31    8   30 1
    32    9   31 1
    33   10   32 1
    34   13   33 1
    35   13   34 1
    36   15   35 1
    37   16   36 1
    38   18   37 1
    39   19   38 1
@<TRIPOS>MOLECULE
ZINC01229450
 40 41 0 0 0
SMALL
NO_CHARGES


@<TRIPOS>ATOM
      1 C          11.098    -7.133    -8.161  C    
      2 O          10.461    -8.270    -8.773  O    
      3 C          10.198    -9.284    -7.893  C    
      4 C          11.125   -10.329    -7.721  C    
      5 C          10.830   -11.398    -6.860  C    
      6 C           9.608   -11.438    -6.155  C    
      7 C           8.638   -10.418    -6.363  C    
      8 C           8.960    -9.342    -7.224  C    
      9 N           7.389   -10.376    -5.834  N    
     10 C           6.730   -11.345    -5.017  C    
     11 C           5.325   -10.940    -4.770  C    
     12 C           4.415   -10.830    -5.847  C    
     13 C           3.069   -10.472    -5.631  C    
     14 C           2.625   -10.188    -4.321  C    
     15 C           3.522   -10.289    -3.239  C    
     16 C           4.859   -10.664    -3.465  C    
     17 I           2.907    -9.892    -1.321  I    
     18 O           1.342    -9.815    -4.089  O    
     19 O           2.217   -10.340    -6.693  O    
     20 C           1.661   -11.589    -7.143  C    
     21 O           9.373   -12.510    -5.335  O    
     22 C          10.033   -12.416    -4.054  C    
     23 H          10.448    -6.681    -7.407  H    
     24 H          11.285    -6.390    -8.937  H    
     25 H          12.055    -7.402    -7.706  H    
     26 H          12.011   -10.317    -8.229  H    
     27 H          11.511   -12.157    -6.752  H    
     28 H           8.279    -8.594    -7.392  H    
     29 H           6.856    -9.607    -6.081  H    
     30 H           6.725   -12.315    -5.525  H    
     31 H           7.275   -11.448    -4.077  H    
     32 H           4.731   -11.015    -6.804  H    
     33 H           5.491   -10.734    -2.667  H    
     34 H           0.879    -9.875    -4.953  H    
     35 H           2.440   -12.249    -7.528  H    
     36 H           0.965   -11.372    -7.954  H    
     37 H           1.110   -12.096    -6.344  H    
     38 H          11.121   -12.433    -4.162  H    
     39 H           9.739   -13.278    -3.456  H    
     40 H           9.738   -11.511    -3.517  H    
@<TRIPOS>BOND
     1    1    2 1
     2    2    3 1
     3    3    8 ar
     4    3    4 ar
     5    4    5 ar
     6    5    6 ar
     7    6    7 ar
     8    6   21 1
     9    7    8 ar
    10    7    9 1
    11    9   10 1
    12   10   11 1
    13   11   16 ar
    14   11   12 ar
    15   12   13 ar
    16   13   14 ar
    17   13   19 1
    18   14   15 ar
    19   14   18 1
    20   15   16 ar
    21   15   17 1
    22   19   20 1
    23   21   22 1
    24    1   23 1
    25    1   24 1
    26    1   25 1
    27    4   26 1
    28    5   27 1
    29    8   28 1
    30    9   29 1
    31   10   30 1
    32   10   31 1
    33   12   32 1
    34   16   33 1
    35   18   34 1
    36   20   35 1
    37   20   36 1
    38   20   37 1
    39   22   38 1
    40   22   39 1
    41   22   40 1
@<TRIPOS>MOLECULE
ZINC01229842
 32 33 0 0 0
SMALL
NO_CHARGES


@<TRIPOS>ATOM
      1 C          -0.597    -8.321    -1.533  C    
      2 C          -0.357    -6.950    -1.734  C    
      3 C           0.705    -6.493    -2.563  C    
      4 C           1.523    -7.483    -3.172  C    
      5 C           1.288    -8.856    -2.973  C    
      6 C           0.228    -9.274    -2.151  C    
      7 F           2.055    -9.744    -3.546  F    
      8 C           0.925    -5.119    -2.758  C    
      9 O           0.369    -4.318    -2.013  O    
     10 N           1.745    -4.671    -3.708  N    
     11 N           2.061    -3.478    -4.037  N    
     12 C           1.656    -2.291    -3.739  C    
     13 C           2.251    -1.134    -4.250  C    
     14 C           3.291    -1.204    -5.218  C    
     15 C           3.901    -0.050    -5.764  C    
     16 C           3.443     1.210    -5.315  C    
     17 C           2.423     1.314    -4.354  C    
     18 C           1.833     0.155    -3.816  C    
     19 O           0.861     0.335    -2.880  O    
     20 Br          1.869     3.007    -3.819  Br   
     21 N           4.901    -0.152    -6.692  N    
     22 O           5.438     0.808    -7.176  O    
     23 O           5.356    -1.302    -7.106  O    
     24 H          -1.368    -8.624    -0.935  H    
     25 H          -0.983    -6.285    -1.272  H    
     26 H           2.311    -7.221    -3.764  H    
     27 H           0.052   -10.270    -2.003  H    
     28 H           2.187    -5.351    -4.235  H    
     29 H           0.875    -2.204    -3.138  H    
     30 H           3.605    -2.120    -5.541  H    
     31 H           3.848     2.070    -5.684  H    
     32 H           0.902    -0.451    -2.290  H    
@<TRIPOS>BOND
     1    1    6 ar
     2    1    2 ar
     3    2    3 ar
     4    3    4 ar
     5    3    8 1
     6    4    5 ar
     7    5    6 ar
     8    5    7 1
     9    8    9 2
    10    8   10 1
    11   10   11 1
    12   11   12 2
    13   12   13 1
    14   13   18 ar
    15   13   14 ar
    16   14   15 ar
    17   15   16 ar
    18   15   21 1
    19   16   17 ar
    20   17   18 ar
    21   17   20 1
    22   18   19 1
    23   21   22 2
    24   21   23 1
    25    1   24 1
    26    2   25 1
    27    4   26 1
    28    6   27 1
    29   10   28 1
    30   12   29 1
    31   14   30 1
    32   16   31 1
    33   19   32 1
@<TRIPOS>MOLECULE
ZINC01282573
 48 49 0 0 0
SMALL
NO_CHARGES


@<TRIPOS>ATOM
      1 C           6.289    -2.125    -3.275  C    
      2 C           4.763    -2.058    -3.525  C    
      3 C           4.267    -2.652    -4.875  C    
      4 C           4.785    -1.891    -6.120  C    
      5 O           4.674    -4.030    -4.965  O    
      6 C           3.952    -5.184    -4.946  C    
      7 O           4.660    -6.329    -5.075  O    
      8 C           2.479    -5.234    -4.799  C    
      9 N           1.946    -6.570    -4.622  N    
     10 C           1.335    -7.270    -5.568  C    
     11 O           1.154    -6.841    -6.703  O    
     12 C           0.952    -8.509    -5.178  C    
     13 C           0.473    -9.466    -6.010  C    
     14 C           0.059   -10.744    -5.648  C    
     15 C          -0.899   -10.955    -4.628  C    
     16 C          -1.316   -12.255    -4.291  C    
     17 C          -0.790   -13.389    -4.956  C    
     18 C           0.152   -13.171    -5.989  C    
     19 C           0.560   -11.870    -6.340  C    
     20 C          -1.215   -14.778    -4.590  C    
     21 C          -0.869   -15.126    -3.114  C    
     22 C          -2.718   -15.025    -4.898  C    
     23 S           1.304    -8.795    -3.526  S    
     24 C           2.025    -7.260    -3.483  C    
     25 S           2.760    -6.758    -2.024  S    
     26 H           6.639    -3.154    -3.336  H    
     27 H           6.515    -1.740    -2.278  H    
     28 H           6.827    -1.520    -4.005  H    
     29 H           4.265    -2.600    -2.714  H    
     30 H           4.443    -1.014    -3.458  H    
     31 H           3.174    -2.573    -4.881  H    
     32 H           4.524    -0.834    -6.057  H    
     33 H           4.332    -2.306    -7.022  H    
     34 H           5.867    -1.986    -6.203  H    
     35 H           2.188    -4.624    -3.939  H    
     36 H           2.054    -4.756    -5.684  H    
     37 H           0.473    -9.270    -6.988  H    
     38 H          -1.315   -10.159    -4.135  H    
     39 H          -2.021   -12.366    -3.557  H    
     40 H           0.546   -13.966    -6.502  H    
     41 H           1.246   -11.754    -7.090  H    
     42 H          -0.659   -15.498    -5.204  H    
     43 H           0.197   -14.971    -2.924  H    
     44 H          -1.105   -16.172    -2.906  H    
     45 H          -1.439   -14.504    -2.420  H    
     46 H          -3.355   -14.384    -4.283  H    
     47 H          -2.980   -16.065    -4.694  H    
     48 H          -2.928   -14.818    -5.951  H    
@<TRIPOS>BOND
     1    1    2 1
     2    2    3 1
     3    3    4 1
     4    3    5 1
     5    5    6 1
     6    6    7 2
     7    6    8 1
     8    8    9 1
     9    9   24 1
    10    9   10 1
    11   10   11 2
    12   10   12 1
    13   12   13 2
    14   12   23 1
    15   13   14 1
    16   14   19 ar
    17   14   15 ar
    18   15   16 ar
    19   16   17 ar
    20   17   18 ar
    21   17   20 1
    22   18   19 ar
    23   20   21 1
    24   20   22 1
    25   23   24 1
    26   24   25 2
    27    1   26 1
    28    1   27 1
    29    1   28 1
    30    2   29 1
    31    2   30 1
    32    3   31 1
    33    4   32 1
    34    4   33 1
    35    4   34 1
    36    8   35 1
    37    8   36 1
    38   13   37 1
    39   15   38 1
    40   16   39 1
    41   18   40 1
    42   19   41 1
    43   20   42 1
    44   21   43 1
    45   21   44 1
    46   21   45 1
    47   22   46 1
    48   22   47 1
    49   22   48 1
@<TRIPOS>MOLECULE
ZINC01327501
 57 60 0 0 0
SMALL
NO_CHARGES


@<TRIPOS>ATOM
      1 C           0.948    -9.351    -5.795  C    
      2 O           0.789    -7.930    -5.914  O    
      3 C           1.771    -7.071    -5.472  C    
      4 C           3.120    -7.415    -5.203  C    
      5 C           4.043    -6.440    -4.776  C    
      6 C           3.640    -5.095    -4.634  C    
      7 C           4.514    -4.071    -4.260  C    
      8 C           4.125    -2.771    -4.227  C    
      9 C           2.793    -2.480    -4.471  C    
     10 O           2.328    -1.357    -4.339  O    
     11 N           1.925    -3.433    -4.801  N    
     12 C           2.296    -4.743    -4.918  C    
     13 C           1.373    -5.726    -5.325  C    
     14 C           5.103    -1.701    -3.976  C    
     15 N           5.531    -1.040    -5.215  N    
     16 C           4.878     0.232    -5.571  C    
     17 C           5.849     1.457    -5.550  C    
     18 C           5.110     2.788    -5.853  C    
     19 C           4.318     2.718    -7.184  C    
     20 C           3.344     1.511    -7.212  C    
     21 C           4.074     0.174    -6.913  C    
     22 C           6.487    -1.598    -5.996  C    
     23 O           6.855    -1.028    -7.015  O    
     24 N           7.104    -2.736    -5.673  N    
     25 C           8.054    -3.483    -6.321  C    
     26 C           8.345    -3.435    -7.709  C    
     27 C           9.337    -4.265    -8.268  C    
     28 C          10.046    -5.166    -7.449  C    
     29 C           9.747    -5.247    -6.077  C    
     30 C           8.756    -4.415    -5.522  C    
     31 F          10.963    -5.935    -7.968  F    
     32 H           1.734    -9.709    -6.463  H    
     33 H           0.010    -9.827    -6.082  H    
     34 H           1.177    -9.639    -4.763  H    
     35 H           3.442    -8.376    -5.322  H    
     36 H           5.011    -6.714    -4.587  H    
     37 H           5.453    -4.313    -4.046  H    
     38 H           0.997    -3.192    -4.955  H    
     39 H           0.407    -5.459    -5.531  H    
     40 H           4.664    -0.993    -3.265  H    
     41 H           5.975    -2.074    -3.432  H    
     42 H           4.125     0.475    -4.815  H    
     43 H           6.317     1.525    -4.565  H    
     44 H           6.642     1.333    -6.289  H    
     45 H           4.420     3.017    -5.034  H    
     46 H           5.839     3.602    -5.908  H    
     47 H           3.748     3.642    -7.314  H    
     48 H           5.020     2.636    -8.018  H    
     49 H           2.556     1.666    -6.469  H    
     50 H           2.869     1.450    -8.195  H    
     51 H           4.732    -0.045    -7.756  H    
     52 H           3.334    -0.629    -6.857  H    
     53 H           6.868    -3.089    -4.804  H    
     54 H           7.826    -2.819    -8.336  H    
     55 H           9.536    -4.217    -9.270  H    
     56 H          10.249    -5.906    -5.480  H    
     57 H           8.556    -4.490    -4.521  H    
@<TRIPOS>BOND
     1    1    2 1
     2    2    3 1
     3    3   13 ar
     4    3    4 ar
     5    4    5 ar
     6    5    6 ar
     7    6   12 ar
     8    6    7 1
     9    7    8 2
    10    8    9 1
    11    8   14 1
    12    9   10 2
    13    9   11 1
    14   11   12 1
    15   12   13 ar
    16   14   15 1
    17   15   16 1
    18   15   22 1
    19   16   21 1
    20   16   17 1
    21   17   18 1
    22   18   19 1
    23   19   20 1
    24   20   21 1
    25   22   23 2
    26   22   24 1
    27   24   25 1
    28   25   30 ar
    29   25   26 ar
    30   26   27 ar
    31   27   28 ar
    32   28   29 ar
    33   28   31 1
    34   29   30 ar
    35    1   32 1
    36    1   33 1
    37    1   34 1
    38    4   35 1
    39    5   36 1
    40    7   37 1
    41   11   38 1
    42   13   39 1
    43   14   40 1
    44   14   41 1
    45   16   42 1
    46   17   43 1
    47   17   44 1
    48   18   45 1
    49   18   46 1
    50   19   47 1
    51   19   48 1
    52   20   49 1
    53   20   50 1
    54   21   51 1
    55   21   52 1
    56   24   53 1
    57   26   54 1
    58   27   55 1
    59   29   56 1
    60   30   57 1
@<TRIPOS>MOLECULE
ZINC01328370
 65 69 0 0 0
SMALL
NO_CHARGES


@<TRIPOS>ATOM
      1 C           6.027     0.041   -12.677  C    
      2 C           5.464     0.872   -11.588  C    
      3 C           5.201     2.243   -11.767  C    
      4 C           4.659     3.001   -10.718  C    
      5 C           4.370     2.415    -9.462  C    
      6 C           4.686     1.039    -9.235  C    
      7 C           5.200     0.292   -10.329  C    
      8 N           4.575     0.414    -8.011  N    
      9 C           5.182     0.977    -6.819  C    
     10 C           4.240     0.850    -5.591  C    
     11 C           3.108    -1.052    -6.694  C    
     12 C           4.108    -0.954    -7.876  C    
     13 C           2.953    -0.770    -4.156  C    
     14 C           2.835    -2.220    -3.839  C    
     15 C           1.712    -2.987    -3.489  C    
     16 C           1.974    -4.340    -3.211  C    
     17 C           3.315    -4.700    -3.327  C    
     18 S           4.184    -3.291    -3.780  S    
     19 C           1.650    -0.045    -4.103  C    
     20 N           0.616    -0.265    -4.922  N    
     21 N          -0.313     0.501    -4.562  N    
     22 N           0.031     1.176    -3.601  N    
     23 N           1.216     0.905    -3.256  N    
     24 C           1.866     1.518    -2.134  C    
     25 C           3.026     2.363    -2.523  C    
     26 C           4.306     2.154    -1.955  C    
     27 C           5.392     2.971    -2.318  C    
     28 C           5.226     3.998    -3.268  C    
     29 C           3.951     4.222    -3.825  C    
     30 C           2.859     3.414    -3.452  C    
     31 O           6.254     4.837    -3.602  O    
     32 C           7.212     4.267    -4.505  C    
     33 C           3.620     3.264    -8.496  C    
     34 N           3.738    -0.552    -5.427  N    
     35 H           6.990    -0.371   -12.367  H    
     36 H           6.179     0.616   -13.596  H    
     37 H           5.344    -0.782   -12.902  H    
     38 H           5.383     2.698   -12.667  H    
     39 H           4.444     3.987   -10.891  H    
     40 H           5.451    -0.691   -10.197  H    
     41 H           6.098     0.415    -6.607  H    
     42 H           5.485     2.019    -6.939  H    
     43 H           4.813     1.143    -4.707  H    
     44 H           3.401     1.540    -5.695  H    
     45 H           2.218    -0.467    -6.947  H    
     46 H           2.813    -2.100    -6.588  H    
     47 H           3.596    -1.307    -8.776  H    
     48 H           4.960    -1.616    -7.689  H    
     49 H           3.566    -0.386    -3.340  H    
     50 H           0.769    -2.607    -3.422  H    
     51 H           1.246    -4.999    -2.934  H    
     52 H           3.715    -5.625    -3.163  H    
     53 H           1.158     2.162    -1.603  H    
     54 H           2.160     0.731    -1.435  H    
     55 H           4.457     1.412    -1.266  H    
     56 H           6.304     2.811    -1.885  H    
     57 H           3.811     4.982    -4.495  H    
     58 H           1.942     3.599    -3.866  H    
     59 H           7.813     3.503    -3.998  H    
     60 H           7.884     5.065    -4.823  H    
     61 H           6.739     3.833    -5.395  H    
     62 H           4.294     4.001    -8.049  H    
     63 H           3.157     2.677    -7.706  H    
     64 H           2.810     3.797    -9.002  H    
     65 H           4.584    -1.117    -5.315  H    
@<TRIPOS>BOND
     1    1    2 1
     2    2    7 ar
     3    2    3 ar
     4    3    4 ar
     5    4    5 ar
     6    5    6 ar
     7    5   33 1
     8    6    7 ar
     9    6    8 1
    10    8   12 1
    11    8    9 1
    12    9   10 1
    13   10   34 1
    14   11   12 1
    15   11   34 1
    16   13   14 1
    17   13   19 1
    18   13   34 1
    19   14   18 1
    20   14   15 2
    21   15   16 1
    22   16   17 2
    23   17   18 1
    24   19   23 1
    25   19   20 2
    26   20   21 1
    27   21   22 2
    28   22   23 1
    29   23   24 1
    30   24   25 1
    31   25   30 ar
    32   25   26 ar
    33   26   27 ar
    34   27   28 ar
    35   28   29 ar
    36   28   31 1
    37   29   30 ar
    38   31   32 1
    39    1   35 1
    40    1   36 1
    41    1   37 1
    42    3   38 1
    43    4   39 1
    44    7   40 1
    45    9   41 1
    46    9   42 1
    47   10   43 1
    48   10   44 1
    49   11   45 1
    50   11   46 1
    51   12   47 1
    52   12   48 1
    53   13   49 1
    54   15   50 1
    55   16   51 1
    56   17   52 1
    57   24   53 1
    58   24   54 1
    59   26   55 1
    60   27   56 1
    61   29   57 1
    62   30   58 1
    63   32   59 1
    64   32   60 1
    65   32   61 1
    66   33   62 1
    67   33   63 1
    68   33   64 1
    69   34   65 1
@<TRIPOS>MOLECULE
ZINC01335408
 70 74 0 0 0
SMALL
NO_CHARGES


@<TRIPOS>ATOM
      1 C          -2.871     5.665    -7.668  C    
      2 C          -1.608     5.171    -7.072  C    
      3 C          -1.223     3.816    -7.168  C    
      4 C          -0.015     3.371    -6.599  C    
      5 C           0.828     4.277    -5.921  C    
      6 C           0.449     5.633    -5.824  C    
      7 C          -0.760     6.072    -6.393  C    
      8 S           2.334     3.721    -5.230  S    
      9 O           2.074     2.368    -4.429  O    
     10 O           2.964     4.789    -4.231  O    
     11 C           3.499     3.376    -6.566  C    
     12 N           4.756     2.913    -6.056  N    
     13 C           5.261     1.669    -5.971  C    
     14 N           6.446     1.817    -5.369  N    
     15 N           6.591     3.045    -5.147  N    
     16 N           5.615     3.680    -5.538  N    
     17 C           4.636     0.370    -6.338  C    
     18 C           4.330     0.312    -7.802  C    
     19 C           3.047    -0.044    -8.285  C    
     20 C           2.812    -0.074    -9.672  C    
     21 C           3.851     0.245   -10.569  C    
     22 C           5.109     0.594   -10.047  C    
     23 N           5.303     0.618    -8.707  N    
     24 C           4.567    -1.992    -5.458  C    
     25 C           5.398    -3.072    -4.719  C    
     26 C           7.434    -2.315    -5.891  C    
     27 C           6.601    -1.247    -6.640  C    
     28 C           7.306    -4.698    -4.978  C    
     29 C           8.280    -4.412    -3.788  C    
     30 C           8.924    -5.715    -3.241  C    
     31 C           9.634    -6.518    -4.364  C    
     32 C           8.684    -6.801    -5.556  C    
     33 C           8.042    -5.495    -6.101  C    
     34 N           5.421    -0.817    -5.817  N    
     35 N           6.582    -3.497    -5.537  N    
     36 H          -3.503     6.093    -6.885  H    
     37 H          -3.432     4.867    -8.163  H    
     38 H          -2.649     6.439    -8.408  H    
     39 H          -1.815     3.140    -7.654  H    
     40 H           0.247     2.388    -6.684  H    
     41 H           1.048     6.305    -5.343  H    
     42 H          -1.014     7.059    -6.309  H    
     43 H           3.036     2.638    -7.222  H    
     44 H           3.650     4.290    -7.146  H    
     45 H           3.688     0.403    -5.795  H    
     46 H           2.286    -0.278    -7.641  H    
     47 H           1.889    -0.327   -10.031  H    
     48 H           3.691     0.219   -11.580  H    
     49 H           5.881     0.828   -10.679  H    
     50 H           4.109    -2.425    -6.353  H    
     51 H           3.763    -1.681    -4.782  H    
     52 H           5.719    -2.679    -3.748  H    
     53 H           4.738    -3.925    -4.537  H    
     54 H           8.255    -2.616    -6.547  H    
     55 H           7.866    -1.856    -4.998  H    
     56 H           7.249    -0.391    -6.852  H    
     57 H           6.277    -1.672    -7.594  H    
     58 H           6.546    -5.390    -4.599  H    
     59 H           9.083    -3.744    -4.111  H    
     60 H           7.738    -3.920    -2.977  H    
     61 H           9.653    -5.458    -2.466  H    
     62 H           8.150    -6.337    -2.779  H    
     63 H          10.501    -5.954    -4.717  H    
     64 H           9.993    -7.465    -3.955  H    
     65 H           9.247    -7.286    -6.357  H    
     66 H           7.893    -7.487    -5.237  H    
     67 H           7.325    -5.756    -6.888  H    
     68 H           8.828    -4.882    -6.553  H    
     69 H           5.812    -0.502    -4.930  H    
     70 H           6.182    -3.816    -6.422  H    
@<TRIPOS>BOND
     1    1    2 1
     2    2    7 ar
     3    2    3 ar
     4    3    4 ar
     5    4    5 ar
     6    5    6 ar
     7    5    8 1
     8    6    7 ar
     9    8    9 2
    10    8   10 2
    11    8   11 1
    12   11   12 1
    13   12   16 1
    14   12   13 1
    15   13   14 2
    16   13   17 1
    17   14   15 1
    18   15   16 2
    19   17   18 1
    20   17   34 1
    21   18   23 ar
    22   18   19 ar
    23   19   20 ar
    24   20   21 ar
    25   21   22 ar
    26   22   23 ar
    27   24   25 1
    28   24   34 1
    29   25   35 1
    30   26   27 1
    31   26   35 1
    32   27   34 1
    33   28   33 1
    34   28   29 1
    35   28   35 1
    36   29   30 1
    37   30   31 1
    38   31   32 1
    39   32   33 1
    40    1   36 1
    41    1   37 1
    42    1   38 1
    43    3   39 1
    44    4   40 1
    45    6   41 1
    46    7   42 1
    47   11   43 1
    48   11   44 1
    49   17   45 1
    50   19   46 1
    51   20   47 1
    52   21   48 1
    53   22   49 1
    54   24   50 1
    55   24   51 1
    56   25   52 1
    57   25   53 1
    58   26   54 1
    59   26   55 1
    60   27   56 1
    61   27   57 1
    62   28   58 1
    63   29   59 1
    64   29   60 1
    65   30   61 1
    66   30   62 1
    67   31   63 1
    68   31   64 1
    69   32   65 1
    70   32   66 1
    71   33   67 1
    72   33   68 1
    73   34   69 1
    74   35   70 1
@<TRIPOS>MOLECULE
ZINC01339773
 56 60 0 0 0
SMALL
NO_CHARGES


@<TRIPOS>ATOM
      1 C           1.850    -3.145    -8.215  C    
      2 C           0.758    -3.471    -7.389  C    
      3 C           0.900    -4.445    -6.381  C    
      4 C           2.138    -5.101    -6.178  C    
      5 C           3.224    -4.771    -7.028  C    
      6 C           3.081    -3.797    -8.036  C    
      7 C           2.320    -6.090    -5.087  C    
      8 N           3.306    -5.640    -4.101  N    
      9 C           2.901    -4.537    -3.232  C    
     10 C           3.141    -3.219    -3.862  C    
     11 N           4.404    -2.843    -4.217  N    
     12 C           4.665    -1.695    -4.832  C    
     13 O           5.836    -1.449    -5.092  O    
     14 C           3.633    -0.812    -5.162  C    
     15 C           3.669     0.435    -5.840  C    
     16 C           2.410     1.054    -5.955  C    
     17 S           1.229     0.013    -5.258  S    
     18 C           2.340    -1.206    -4.778  C    
     19 N           2.100    -2.387    -4.142  N    
     20 C           2.153     2.370    -6.598  C    
     21 C           3.459     3.194    -6.787  C    
     22 C           4.616     2.305    -7.313  C    
     23 C           4.892     1.091    -6.378  C    
     24 C           4.543    -6.187    -4.032  C    
     25 O           4.817    -7.144    -4.747  O    
     26 N           5.487    -5.740    -3.202  N    
     27 C           6.789    -6.121    -3.035  C    
     28 C           7.609    -6.714    -4.029  C    
     29 C           8.953    -7.035    -3.762  C    
     30 C           9.509    -6.752    -2.503  C    
     31 C           8.720    -6.147    -1.511  C    
     32 C           7.375    -5.826    -1.779  C    
     33 H           1.746    -2.436    -8.944  H    
     34 H          -0.139    -3.000    -7.521  H    
     35 H           0.099    -4.658    -5.783  H    
     36 H           4.131    -5.228    -6.912  H    
     37 H           3.874    -3.564    -8.639  H    
     38 H           1.377    -6.292    -4.570  H    
     39 H           2.580    -7.038    -5.565  H    
     40 H           1.840    -4.628    -2.990  H    
     41 H           3.405    -4.553    -2.264  H    
     42 H           5.142    -3.445    -4.021  H    
     43 H           1.686     2.195    -7.572  H    
     44 H           1.456     2.951    -5.987  H    
     45 H           3.278     4.016    -7.487  H    
     46 H           3.757     3.630    -5.828  H    
     47 H           4.352     1.941    -8.310  H    
     48 H           5.527     2.903    -7.405  H    
     49 H           5.498     1.416    -5.527  H    
     50 H           5.468     0.358    -6.948  H    
     51 H           5.204    -5.045    -2.594  H    
     52 H           7.246    -6.892    -4.966  H    
     53 H           9.529    -7.461    -4.489  H    
     54 H          10.492    -6.973    -2.314  H    
     55 H           9.124    -5.934    -0.597  H    
     56 H           6.820    -5.382    -1.042  H    
@<TRIPOS>BOND
     1    1    6 ar
     2    1    2 ar
     3    2    3 ar
     4    3    4 ar
     5    4    5 ar
     6    4    7 1
     7    5    6 ar
     8    7    8 1
     9    8    9 1
    10    8   24 1
    11    9   10 1
    12   10   19 2
    13   10   11 1
    14   11   12 1
    15   12   13 2
    16   12   14 1
    17   14   18 2
    18   14   15 1
    19   15   23 1
    20   15   16 2
    21   16   17 1
    22   16   20 1
    23   17   18 1
    24   18   19 1
    25   20   21 1
    26   21   22 1
    27   22   23 1
    28   24   25 2
    29   24   26 1
    30   26   27 1
    31   27   32 ar
    32   27   28 ar
    33   28   29 ar
    34   29   30 ar
    35   30   31 ar
    36   31   32 ar
    37    1   33 1
    38    2   34 1
    39    3   35 1
    40    5   36 1
    41    6   37 1
    42    7   38 1
    43    7   39 1
    44    9   40 1
    45    9   41 1
    46   11   42 1
    47   20   43 1
    48   20   44 1
    49   21   45 1
    50   21   46 1
    51   22   47 1
    52   22   48 1
    53   23   49 1
    54   23   50 1
    55   26   51 1
    56   28   52 1
    57   29   53 1
    58   30   54 1
    59   31   55 1
    60   32   56 1
@<TRIPOS>MOLECULE
ZINC01348356
 58 61 0 0 0
SMALL
NO_CHARGES


@<TRIPOS>ATOM
      1 C           7.343    -5.623    -4.964  C    
      2 C           5.832    -5.460    -5.267  C    
      3 C           5.217    -4.019    -5.227  C    
      4 C           5.690    -3.223    -4.062  C    
      5 N           6.838    -2.540    -4.001  N    
      6 N           6.916    -2.048    -2.845  N    
      7 N           5.941    -2.360    -2.172  N    
      8 N           5.142    -3.076    -2.841  N    
      9 C           3.935    -3.635    -2.305  C    
     10 C           2.725    -2.894    -2.747  C    
     11 C           2.518    -1.560    -2.322  C    
     12 C           1.343    -0.867    -2.669  C    
     13 C           0.348    -1.484    -3.466  C    
     14 C           0.558    -2.813    -3.889  C    
     15 C           1.726    -3.512    -3.530  C    
     16 O          -0.867    -0.926    -3.788  O    
     17 C          -0.962     0.500    -3.992  C    
     18 C           4.171    -3.584    -7.483  C    
     19 C           4.145    -2.596    -8.675  C    
     20 N           5.448    -2.547    -9.318  N    
     21 C           6.527    -2.150    -8.428  C    
     22 C           6.576    -3.109    -7.208  C    
     23 C           5.652    -2.885   -10.641  C    
     24 C           4.838    -3.843   -11.304  C    
     25 C           5.046    -4.193   -12.650  C    
     26 C           6.078    -3.589   -13.383  C    
     27 C           6.906    -2.639   -12.764  C    
     28 C           6.693    -2.296   -11.413  C    
     29 Cl          8.150    -1.899   -13.647  Cl   
     30 N           5.250    -3.210    -6.506  N    
     31 H           7.950    -5.004    -5.619  H    
     32 H           7.632    -6.665    -5.113  H    
     33 H           7.554    -5.355    -3.928  H    
     34 H           5.630    -5.901    -6.245  H    
     35 H           5.299    -6.073    -4.536  H    
     36 H           4.160    -4.184    -5.015  H    
     37 H           3.880    -4.691    -2.580  H    
     38 H           3.967    -3.610    -1.210  H    
     39 H           3.216    -1.095    -1.735  H    
     40 H           1.212     0.080    -2.308  H    
     41 H          -0.159    -3.287    -4.441  H    
     42 H           1.833    -4.480    -3.839  H    
     43 H          -0.823     1.039    -3.048  H    
     44 H          -1.960     0.727    -4.366  H    
     45 H          -0.225     0.844    -4.729  H    
     46 H           3.193    -3.543    -7.002  H    
     47 H           4.322    -4.598    -7.863  H    
     48 H           3.328    -2.862    -9.347  H    
     49 H           3.908    -1.598    -8.296  H    
     50 H           7.514    -2.187    -8.889  H    
     51 H           6.363    -1.128    -8.081  H    
     52 H           6.888    -4.096    -7.564  H    
     53 H           7.343    -2.740    -6.526  H    
     54 H           4.113    -4.354   -10.798  H    
     55 H           4.449    -4.893   -13.091  H    
     56 H           6.225    -3.849   -14.361  H    
     57 H           7.277    -1.556   -11.017  H    
     58 H           5.026    -2.251    -6.223  H    
@<TRIPOS>BOND
     1    1    2 1
     2    2    3 1
     3    3    4 1
     4    3   30 1
     5    4    8 1
     6    4    5 2
     7    5    6 1
     8    6    7 2
     9    7    8 1
    10    8    9 1
    11    9   10 1
    12   10   15 ar
    13   10   11 ar
    14   11   12 ar
    15   12   13 ar
    16   13   14 ar
    17   13   16 1
    18   14   15 ar
    19   16   17 1
    20   18   19 1
    21   18   30 1
    22   19   20 1
    23   20   21 1
    24   20   23 1
    25   21   22 1
    26   22   30 1
    27   23   28 ar
    28   23   24 ar
    29   24   25 ar
    30   25   26 ar
    31   26   27 ar
    32   27   28 ar
    33   27   29 1
    34    1   31 1
    35    1   32 1
    36    1   33 1
    37    2   34 1
    38    2   35 1
    39    3   36 1
    40    9   37 1
    41    9   38 1
    42   11   39 1
    43   12   40 1
    44   14   41 1
    45   15   42 1
    46   17   43 1
    47   17   44 1
    48   17   45 1
    49   18   46 1
    50   18   47 1
    51   19   48 1
    52   19   49 1
    53   21   50 1
    54   21   51 1
    55   22   52 1
    56   22   53 1
    57   24   54 1
    58   25   55 1
    59   26   56 1
    60   28   57 1
    61   30   58 1
@<TRIPOS>MOLECULE
ZINC01351417
 49 52 0 0 0
SMALL
NO_CHARGES


@<TRIPOS>ATOM
      1 C           6.280    -1.619     0.797  C    
      2 C           5.294    -1.684    -0.274  C    
      3 C           3.900    -1.451    -0.198  C    
      4 C           3.214    -1.121     0.999  C    
      5 C           1.824    -0.903     1.007  C    
      6 C           1.089    -1.007    -0.183  C    
      7 C           1.741    -1.335    -1.382  C    
      8 C           3.140    -1.560    -1.408  C    
      9 C           3.820    -1.895    -2.590  C    
     10 O           3.207    -2.006    -3.647  O    
     11 N           5.149    -2.097    -2.550  N    
     12 N           5.786    -1.985    -1.430  N    
     13 C           5.936    -2.474    -3.705  C    
     14 C           5.816    -3.870    -4.099  C    
     15 O           5.069    -4.621    -3.482  O    
     16 N           6.581    -4.293    -5.097  N    
     17 C           6.703    -5.539    -5.614  C    
     18 N           7.598    -5.764    -6.582  N    
     19 N           7.655    -6.966    -6.943  N    
     20 C           6.845    -7.747    -6.335  C    
     21 S           5.864    -6.990    -5.163  S    
     22 C           6.800    -9.178    -6.568  C    
     23 C           5.590    -9.704    -7.205  C    
     24 O           4.809    -8.904    -7.717  O    
     25 N           5.336   -11.018    -7.318  N    
     26 C           6.180   -12.061    -6.803  C    
     27 C           5.612   -13.376    -7.361  C    
     28 C           4.143   -13.044    -7.652  C    
     29 C           4.164   -11.538    -7.966  C    
     30 H           6.757    -2.596     0.908  H    
     31 H           5.871    -1.345     1.765  H    
     32 H           7.044    -0.883     0.545  H    
     33 H           3.702    -1.034     1.889  H    
     34 H           1.344    -0.662     1.878  H    
     35 H           0.078    -0.849    -0.178  H    
     36 H           1.181    -1.409    -2.237  H    
     37 H           5.660    -1.840    -4.554  H    
     38 H           7.001    -2.279    -3.512  H    
     39 H           7.157    -3.621    -5.497  H    
     40 H           7.649    -9.469    -7.189  H    
     41 H           6.927    -9.655    -5.594  H    
     42 H           7.217   -11.944    -7.130  H    
     43 H           6.141   -12.061    -5.709  H    
     44 H           6.128   -13.643    -8.289  H    
     45 H           5.709   -14.200    -6.645  H    
     46 H           3.753   -13.634    -8.486  H    
     47 H           3.535   -13.234    -6.760  H    
     48 H           3.249   -11.071    -7.587  H    
     49 H           4.232   -11.372    -9.046  H    
@<TRIPOS>BOND
     1    1    2 1
     2    2   12 2
     3    2    3 1
     4    3    8 ar
     5    3    4 ar
     6    4    5 ar
     7    5    6 ar
     8    6    7 ar
     9    7    8 ar
    10    8    9 1
    11    9   10 2
    12    9   11 1
    13   11   12 1
    14   11   13 1
    15   13   14 1
    16   14   15 2
    17   14   16 1
    18   16   17 1
    19   17   21 1
    20   17   18 2
    21   18   19 1
    22   19   20 2
    23   20   21 1
    24   20   22 1
    25   22   23 1
    26   23   24 2
    27   23   25 1
    28   25   29 1
    29   25   26 1
    30   26   27 1
    31   27   28 1
    32   28   29 1
    33    1   30 1
    34    1   31 1
    35    1   32 1
    36    4   33 1
    37    5   34 1
    38    6   35 1
    39    7   36 1
    40   13   37 1
    41   13   38 1
    42   16   39 1
    43   22   40 1
    44   22   41 1
    45   26   42 1
    46   26   43 1
    47   27   44 1
    48   27   45 1
    49   28   46 1
    50   28   47 1
    51   29   48 1
    52   29   49 1
@<TRIPOS>MOLECULE
ZINC01355241
 39 40 0 0 0
SMALL
NO_CHARGES


@<TRIPOS>ATOM
      1 C           3.503    -1.388    -0.092  C    
      2 C           2.999    -0.844    -1.445  C    
      3 O           2.871    -1.931    -2.364  O    
      4 C           2.526    -1.847    -3.674  C    
      5 O           2.301    -0.647    -4.268  O    
      6 C           2.517    -3.071    -4.487  C    
      7 S           0.873    -3.308    -5.204  S    
      8 C           1.294    -4.689    -6.179  C    
      9 C           1.244    -4.686    -7.600  C    
     10 C           1.685    -5.840    -8.283  C    
     11 C           2.017    -7.020    -7.568  C    
     12 C           2.463    -8.204    -8.199  C    
     13 C           2.741    -9.356    -7.431  C    
     14 C           2.638    -9.323    -6.019  C    
     15 C           2.206    -8.142    -5.384  C    
     16 C           1.923    -6.992    -6.147  C    
     17 N           1.575    -5.843    -5.515  N    
     18 O           2.912   -10.487    -5.338  O    
     19 C           3.791   -10.397    -4.206  C    
     20 O           3.189   -10.495    -8.052  O    
     21 C           2.151   -11.254    -8.680  C    
     22 C           1.135    -3.572    -8.280  C    
     23 N           1.056    -2.598    -8.874  N    
     24 H           2.778    -2.099     0.322  H    
     25 H           3.647    -0.559     0.605  H    
     26 H           4.456    -1.898    -0.245  H    
     27 H           2.028    -0.348    -1.327  H    
     28 H           3.719    -0.118    -1.828  H    
     29 H           3.266    -2.964    -5.278  H    
     30 H           2.755    -3.942    -3.862  H    
     31 H           1.781    -5.824    -9.308  H    
     32 H           2.568    -8.246    -9.218  H    
     33 H           2.082    -8.119    -4.368  H    
     34 H           4.684    -9.805    -4.433  H    
     35 H           4.086   -11.410    -3.942  H    
     36 H           3.251    -9.955    -3.365  H    
     37 H           1.353   -11.523    -7.973  H    
     38 H           2.602   -12.176    -9.062  H    
     39 H           1.716   -10.692    -9.521  H    
@<TRIPOS>BOND
     1    1    2 1
     2    2    3 1
     3    3    4 1
     4    4    5 2
     5    4    6 1
     6    6    7 1
     7    7    8 1
     8    8   17 ar
     9    8    9 ar
    10    9   10 ar
    11    9   22 1
    12   10   11 ar
    13   11   16 ar
    14   11   12 ar
    15   12   13 ar
    16   13   14 ar
    17   13   20 1
    18   14   15 ar
    19   14   18 1
    20   15   16 ar
    21   16   17 ar
    22   18   19 1
    23   20   21 1
    24   22   23 3
    25    1   24 1
    26    1   25 1
    27    1   26 1
    28    2   27 1
    29    2   28 1
    30    6   29 1
    31    6   30 1
    32   10   31 1
    33   12   32 1
    34   15   33 1
    35   19   34 1
    36   19   35 1
    37   19   36 1
    38   21   37 1
    39   21   38 1
    40   21   39 1
@<TRIPOS>MOLECULE
ZINC01360005
 56 59 0 0 0
SMALL
NO_CHARGES


@<TRIPOS>ATOM
      1 C          -0.318    -8.102    -6.470  C    
      2 O           0.087    -6.923    -7.189  O    
      3 C           0.652    -5.936    -6.423  C    
      4 C          -0.097    -5.187    -5.493  C    
      5 C           0.516    -4.157    -4.760  C    
      6 C           1.874    -3.857    -4.973  C    
      7 C           2.634    -4.552    -5.940  C    
      8 C           2.008    -5.611    -6.643  C    
      9 N           3.937    -4.151    -6.094  N    
     10 C           4.751    -4.199    -7.152  C    
     11 O           4.300    -4.699    -8.176  O    
     12 N           6.005    -3.684    -7.132  N    
     13 C           6.522    -3.035    -5.924  C    
     14 C           6.059    -1.632    -5.778  C    
     15 N           6.946    -0.599    -5.763  N    
     16 C           6.569     0.672    -5.648  C    
     17 O           7.446     1.524    -5.658  O    
     18 C           5.214     1.007    -5.530  C    
     19 C           4.728     2.329    -5.399  C    
     20 C           3.346     2.573    -5.288  C    
     21 C           2.434     1.502    -5.315  C    
     22 C           2.900     0.183    -5.446  C    
     23 C           4.282    -0.067    -5.545  C    
     24 N           4.736    -1.347    -5.666  N    
     25 C           6.889    -3.777    -8.310  C    
     26 C           8.030    -4.825    -8.119  C    
     27 C           8.900    -4.972    -9.399  C    
     28 C           9.456    -3.607    -9.876  C    
     29 C           8.335    -2.554   -10.063  C    
     30 C           7.468    -2.406    -8.782  C    
     31 H           0.471    -8.475    -5.802  H    
     32 H          -0.540    -8.881    -7.201  H    
     33 H          -1.231    -7.905    -5.895  H    
     34 H          -1.089    -5.383    -5.346  H    
     35 H          -0.026    -3.621    -4.079  H    
     36 H           2.300    -3.101    -4.431  H    
     37 H           2.534    -6.168    -7.315  H    
     38 H           4.287    -3.672    -5.330  H    
     39 H           6.248    -3.597    -5.026  H    
     40 H           7.614    -3.032    -5.919  H    
     41 H           7.892    -0.796    -5.844  H    
     42 H           5.373     3.121    -5.392  H    
     43 H           3.001     3.532    -5.194  H    
     44 H           1.430     1.686    -5.245  H    
     45 H           2.230    -0.589    -5.474  H    
     46 H           6.323    -4.132    -9.176  H    
     47 H           8.683    -4.543    -7.293  H    
     48 H           7.593    -5.797    -7.881  H    
     49 H           9.732    -5.649    -9.194  H    
     50 H           8.300    -5.419   -10.196  H    
     51 H          10.178    -3.240    -9.146  H    
     52 H           9.985    -3.744   -10.823  H    
     53 H           8.784    -1.590   -10.310  H    
     54 H           7.698    -2.848   -10.899  H    
     55 H           6.646    -1.719    -8.987  H    
     56 H           8.093    -1.964    -8.005  H    
@<TRIPOS>BOND
     1    1    2 1
     2    2    3 1
     3    3    8 ar
     4    3    4 ar
     5    4    5 ar
     6    5    6 ar
     7    6    7 ar
     8    7    8 ar
     9    7    9 1
    10    9   10 1
    11   10   11 2
    12   10   12 1
    13   12   13 1
    14   12   25 1
    15   13   14 1
    16   14   24 2
    17   14   15 1
    18   15   16 1
    19   16   17 2
    20   16   18 1
    21   18   23 ar
    22   18   19 ar
    23   19   20 ar
    24   20   21 ar
    25   21   22 ar
    26   22   23 ar
    27   23   24 1
    28   25   30 1
    29   25   26 1
    30   26   27 1
    31   27   28 1
    32   28   29 1
    33   29   30 1
    34    1   31 1
    35    1   32 1
    36    1   33 1
    37    4   34 1
    38    5   35 1
    39    6   36 1
    40    8   37 1
    41    9   38 1
    42   13   39 1
    43   13   40 1
    44   15   41 1
    45   19   42 1
    46   20   43 1
    47   21   44 1
    48   22   45 1
    49   25   46 1
    50   26   47 1
    51   26   48 1
    52   27   49 1
    53   27   50 1
    54   28   51 1
    55   28   52 1
    56   29   53 1
    57   29   54 1
    58   30   55 1
    59   30   56 1
@<TRIPOS>MOLECULE
ZINC01363214
 52 56 0 0 0
SMALL
NO_CHARGES


@<TRIPOS>ATOM
      1 C           1.308    -8.450    -7.890  C    
      2 O           1.581    -7.059    -7.622  O    
      3 C           1.512    -6.681    -6.306  C    
      4 C           0.304    -6.686    -5.575  C    
      5 C           0.284    -6.246    -4.241  C    
      6 C           1.462    -5.766    -3.638  C    
      7 C           2.673    -5.701    -4.369  C    
      8 C           2.684    -6.179    -5.700  C    
      9 C           3.918    -5.144    -3.767  C    
     10 N           4.454    -4.010    -4.521  N    
     11 C           5.611    -4.123    -5.221  C    
     12 O           6.262    -5.163    -5.197  O    
     13 C           6.103    -3.085    -6.031  C    
     14 C           7.287    -3.158    -6.806  C    
     15 C           7.716    -2.082    -7.617  C    
     16 C           6.917    -0.913    -7.654  C    
     17 C           5.742    -0.817    -6.890  C    
     18 C           5.340    -1.895    -6.083  C    
     19 N           4.207    -1.804    -5.349  N    
     20 C           3.761    -2.812    -4.561  C    
     21 C           2.501    -2.510    -3.833  C    
     22 C           2.589    -2.365    -2.304  C    
     23 C           2.307    -1.134    -3.164  C    
     24 N           8.869    -2.282    -8.332  N    
     25 C           9.633    -1.442    -9.020  C    
     26 O           9.455    -0.234    -9.066  O    
     27 C          10.827    -1.958    -9.651  C    
     28 C          10.731    -3.161   -10.605  C    
     29 C          10.941    -1.755   -11.175  C    
     30 H           1.864    -9.119    -7.217  H    
     31 H           1.612    -8.662    -8.915  H    
     32 H           0.234    -8.657    -7.808  H    
     33 H          -0.564    -7.010    -6.008  H    
     34 H          -0.588    -6.259    -3.714  H    
     35 H           1.425    -5.447    -2.668  H    
     36 H           3.544    -6.141    -6.252  H    
     37 H           3.753    -4.835    -2.733  H    
     38 H           4.617    -5.982    -3.694  H    
     39 H           7.852    -4.013    -6.778  H    
     40 H           7.162    -0.127    -8.252  H    
     41 H           5.175     0.035    -6.932  H    
     42 H           1.575    -2.960    -4.197  H    
     43 H           1.734    -2.729    -1.729  H    
     44 H           3.583    -2.376    -1.849  H    
     45 H           3.130    -0.420    -3.224  H    
     46 H           1.280    -0.764    -3.118  H    
     47 H           9.194    -3.198    -8.319  H    
     48 H          11.777    -1.843    -9.126  H    
     49 H          11.606    -3.812   -10.641  H    
     50 H           9.738    -3.584   -10.771  H    
     51 H          10.077    -1.349   -11.703  H    
     52 H          11.939    -1.567   -11.572  H    
@<TRIPOS>BOND
     1    1    2 1
     2    2    3 1
     3    3    8 ar
     4    3    4 ar
     5    4    5 ar
     6    5    6 ar
     7    6    7 ar
     8    7    8 ar
     9    7    9 1
    10    9   10 1
    11   10   20 1
    12   10   11 1
    13   11   12 2
    14   11   13 1
    15   13   18 ar
    16   13   14 ar
    17   14   15 ar
    18   15   16 ar
    19   15   24 1
    20   16   17 ar
    21   17   18 ar
    22   18   19 1
    23   19   20 2
    24   20   21 1
    25   21   23 1
    26   21   22 1
    27   22   23 1
    28   24   25 1
    29   25   26 2
    30   25   27 1
    31   27   29 1
    32   27   28 1
    33   28   29 1
    34    1   30 1
    35    1   31 1
    36    1   32 1
    37    4   33 1
    38    5   34 1
    39    6   35 1
    40    8   36 1
    41    9   37 1
    42    9   38 1
    43   14   39 1
    44   16   40 1
    45   17   41 1
    46   21   42 1
    47   22   43 1
    48   22   44 1
    49   23   45 1
    50   23   46 1
    51   24   47 1
    52   27   48 1
    53   28   49 1
    54   28   50 1
    55   29   51 1
    56   29   52 1
@<TRIPOS>MOLECULE
ZINC01363810
 51 53 0 0 0
SMALL
NO_CHARGES


@<TRIPOS>ATOM
      1 C           3.380    -0.560   -11.347  C    
      2 C           3.589    -0.667    -9.809  C    
      3 C           4.823     0.168    -9.358  C    
      4 C           2.292    -0.258    -9.050  C    
      5 N           2.406    -0.514    -7.647  N    
      6 C           2.158     0.335    -6.655  C    
      7 O           1.825     1.490    -6.893  O    
      8 C           2.321    -0.128    -5.277  C    
      9 C           1.354    -1.316    -4.956  C    
     10 C           1.507    -1.809    -3.492  C    
     11 C           1.385    -0.635    -2.487  C    
     12 N           2.258     0.445    -2.872  N    
     13 C           2.131     0.988    -4.197  C    
     14 S           3.564     0.929    -1.903  S    
     15 O           3.514     2.515    -1.762  O    
     16 O           3.376     0.426    -0.404  O    
     17 C           5.104     0.360    -2.483  C    
     18 C           5.348    -1.022    -2.577  C    
     19 C           6.592    -1.495    -3.036  C    
     20 C           7.627    -0.603    -3.413  C    
     21 C           7.352     0.786    -3.330  C    
     22 C           6.111     1.263    -2.872  C    
     23 N           8.865    -1.047    -3.837  N    
     24 C           9.334    -2.297    -3.982  C    
     25 N          10.591    -2.188    -4.420  N    
     26 N          10.817    -0.952    -4.514  N    
     27 N           9.831    -0.298    -4.183  N    
     28 H           3.172     0.479   -11.633  H    
     29 H           2.538    -1.182   -11.663  H    
     30 H           4.270    -0.898   -11.878  H    
     31 H           3.798    -1.720    -9.586  H    
     32 H           5.713    -0.148    -9.910  H    
     33 H           5.015     0.016    -8.294  H    
     34 H           4.652     1.232    -9.539  H    
     35 H           2.052     0.790    -9.270  H    
     36 H           1.461    -0.870    -9.410  H    
     37 H           2.663    -1.418    -7.394  H    
     38 H           3.353    -0.492    -5.178  H    
     39 H           0.315    -0.994    -5.116  H    
     40 H           1.553    -2.161    -5.621  H    
     41 H           0.738    -2.558    -3.271  H    
     42 H           2.489    -2.286    -3.373  H    
     43 H           0.355    -0.263    -2.486  H    
     44 H           1.596    -1.010    -1.481  H    
     45 H           2.855     1.791    -4.375  H    
     46 H           1.132     1.427    -4.296  H    
     47 H           4.627    -1.696    -2.309  H    
     48 H           6.729    -2.506    -3.084  H    
     49 H           8.058     1.473    -3.599  H    
     50 H           5.954     2.273    -2.826  H    
     51 H           8.851    -3.177    -3.800  H    
@<TRIPOS>BOND
     1    1    2 1
     2    2    3 1
     3    2    4 1
     4    4    5 1
     5    5    6 1
     6    6    7 2
     7    6    8 1
     8    8   13 1
     9    8    9 1
    10    9   10 1
    11   10   11 1
    12   11   12 1
    13   12   13 1
    14   12   14 1
    15   14   15 2
    16   14   16 2
    17   14   17 1
    18   17   22 ar
    19   17   18 ar
    20   18   19 ar
    21   19   20 ar
    22   20   21 ar
    23   20   23 1
    24   21   22 ar
    25   23   27 1
    26   23   24 1
    27   24   25 2
    28   25   26 1
    29   26   27 2
    30    1   28 1
    31    1   29 1
    32    1   30 1
    33    2   31 1
    34    3   32 1
    35    3   33 1
    36    3   34 1
    37    4   35 1
    38    4   36 1
    39    5   37 1
    40    8   38 1
    41    9   39 1
    42    9   40 1
    43   10   41 1
    44   10   42 1
    45   11   43 1
    46   11   44 1
    47   13   45 1
    48   13   46 1
    49   18   47 1
    50   19   48 1
    51   21   49 1
    52   22   50 1
    53   24   51 1
@<TRIPOS>MOLECULE
ZINC01375783
 65 70 0 0 0
SMALL
NO_CHARGES


@<TRIPOS>ATOM
      1 C           1.974    -2.623    -4.788  C    
      2 C           0.817    -3.203    -4.259  C    
      3 C          -0.093    -2.487    -3.446  C    
      4 C          -1.217    -3.159    -2.933  C    
      5 C          -1.451    -4.498    -3.222  C    
      6 C          -0.567    -5.231    -4.032  C    
      7 C           0.576    -4.579    -4.545  C    
      8 N           1.483    -5.250    -5.318  N    
      9 C           2.584    -4.668    -5.786  C    
     10 O           3.304    -5.365    -6.486  O    
     11 C           2.873    -3.340    -5.510  C    
     12 C           4.094    -2.681    -5.995  C    
     13 C           5.724    -0.851    -5.603  C    
     14 C           4.901     0.287    -6.072  C    
     15 N           3.835     0.765    -5.425  N    
     16 N           3.389     1.713    -6.122  N    
     17 N           4.074     1.887    -7.124  N    
     18 N           5.028     1.062    -7.161  N    
     19 C           6.023     1.054    -8.191  C    
     20 C           5.441     0.617    -9.559  C    
     21 C           4.937    -0.839    -9.593  C    
     22 C           5.032    -1.207   -11.080  C    
     23 C           5.960    -0.124   -11.668  C    
     24 O           6.450     0.660   -10.575  O    
     25 C           5.735    -2.762    -3.981  C    
     26 C           5.859    -1.995    -2.619  C    
     27 C           6.787    -2.708    -1.598  C    
     28 C           6.306    -4.151    -1.311  C    
     29 C           6.146    -4.959    -2.622  C    
     30 C           5.251    -4.218    -3.653  C    
     31 O          -2.580    -4.943    -2.644  O    
     32 C          -2.969    -3.810    -1.839  C    
     33 O          -2.180    -2.643    -2.145  O    
     34 N           4.904    -1.941    -4.951  N    
     35 H           2.138    -1.656    -4.622  H    
     36 H           0.056    -1.503    -3.214  H    
     37 H          -0.750    -6.218    -4.236  H    
     38 H           1.316    -6.185    -5.533  H    
     39 H           4.764    -3.375    -6.506  H    
     40 H           3.743    -1.995    -6.768  H    
     41 H           6.295    -1.279    -6.431  H    
     42 H           6.454    -0.411    -4.924  H    
     43 H           6.436     2.059    -8.285  H    
     44 H           6.856     0.398    -7.933  H    
     45 H           4.628     1.300    -9.840  H    
     46 H           5.592    -1.490    -9.011  H    
     47 H           3.917    -0.923    -9.217  H    
     48 H           5.450    -2.207   -11.209  H    
     49 H           4.046    -1.161   -11.554  H    
     50 H           6.803    -0.569   -12.202  H    
     51 H           5.404     0.525   -12.357  H    
     52 H           6.747    -2.872    -4.389  H    
     53 H           6.265    -0.992    -2.759  H    
     54 H           4.859    -1.879    -2.181  H    
     55 H           7.809    -2.739    -1.986  H    
     56 H           6.802    -2.139    -0.661  H    
     57 H           7.027    -4.647    -0.657  H    
     58 H           5.341    -4.113    -0.787  H    
     59 H           7.133    -5.129    -3.061  H    
     60 H           5.704    -5.934    -2.396  H    
     61 H           4.228    -4.186    -3.269  H    
     62 H           5.260    -4.815    -4.569  H    
     63 H          -4.027    -3.589    -2.017  H    
     64 H          -2.839    -4.065    -0.779  H    
     65 H           4.221    -1.453    -4.368  H    
@<TRIPOS>BOND
     1    1   11 2
     2    1    2 1
     3    2    7 ar
     4    2    3 ar
     5    3    4 ar
     6    4   33 1
     7    4    5 ar
     8    5    6 ar
     9    5   31 1
    10    6    7 ar
    11    7    8 1
    12    8    9 1
    13    9   10 2
    14    9   11 1
    15   11   12 1
    16   12   34 1
    17   13   14 1
    18   13   34 1
    19   14   18 1
    20   14   15 2
    21   15   16 1
    22   16   17 2
    23   17   18 1
    24   18   19 1
    25   19   20 1
    26   20   24 1
    27   20   21 1
    28   21   22 1
    29   22   23 1
    30   23   24 1
    31   25   30 1
    32   25   26 1
    33   25   34 1
    34   26   27 1
    35   27   28 1
    36   28   29 1
    37   29   30 1
    38   31   32 1
    39   32   33 1
    40    1   35 1
    41    3   36 1
    42    6   37 1
    43    8   38 1
    44   12   39 1
    45   12   40 1
    46   13   41 1
    47   13   42 1
    48   19   43 1
    49   19   44 1
    50   20   45 1
    51   21   46 1
    52   21   47 1
    53   22   48 1
    54   22   49 1
    55   23   50 1
    56   23   51 1
    57   25   52 1
    58   26   53 1
    59   26   54 1
    60   27   55 1
    61   27   56 1
    62   28   57 1
    63   28   58 1
    64   29   59 1
    65   29   60 1
    66   30   61 1
    67   30   62 1
    68   32   63 1
    69   32   64 1
    70   34   65 1
@<TRIPOS>MOLECULE
ZINC00040800
 36 36 0 0 0
SMALL
NO_CHARGES


@<TRIPOS>ATOM
      1 C           3.276     0.697    -9.905  C    
      2 C           2.492     1.144    -8.649  C    
      3 C           2.962     0.421    -7.357  C    
      4 C           2.245     0.889    -6.181  C    
      5 S           0.656     0.327    -5.919  S    
      6 N           2.939     1.426    -5.185  N    
      7 C           2.714     2.279    -4.161  C    
      8 N           1.704     3.142    -3.828  N    
      9 C           1.889     3.803    -2.629  C    
     10 C           3.108     3.524    -1.997  C    
     11 S           3.940     2.391    -2.966  S    
     12 C           0.938     4.769    -2.000  C    
     13 C          -0.364     4.188    -1.608  C    
     14 O          -0.593     2.850    -1.653  O    
     15 O          -1.330     5.036    -1.163  O    
     16 C          -2.646     4.669    -0.733  C    
     17 C          -3.428     5.928    -0.312  C    
     18 C           0.590     3.404    -4.705  C    
     19 H           4.335     0.932    -9.795  H    
     20 H           2.894     1.219   -10.785  H    
     21 H           3.164    -0.378   -10.061  H    
     22 H           2.622     2.224    -8.528  H    
     23 H           1.428     0.948    -8.817  H    
     24 H           2.820    -0.659    -7.466  H    
     25 H           4.038     0.595    -7.238  H    
     26 H           3.453     3.911    -1.117  H    
     27 H           1.371     5.210    -1.098  H    
     28 H           0.765     5.593    -2.696  H    
     29 H          -3.174     4.175    -1.551  H    
     30 H          -2.579     3.980     0.114  H    
     31 H          -2.926     6.416     0.523  H    
     32 H          -4.439     5.652    -0.002  H    
     33 H          -3.494     6.630    -1.146  H    
     34 H           0.855     3.243    -5.755  H    
     35 H           0.249     4.439    -4.641  H    
     36 H          -0.245     2.747    -4.440  H    
@<TRIPOS>BOND
     1    1    2 1
     2    2    3 1
     3    3    4 1
     4    4    5 2
     5    4    6 1
     6    6    7 2
     7    7   11 1
     8    7    8 1
     9    8    9 1
    10    8   18 1
    11    9   10 2
    12    9   12 1
    13   10   11 1
    14   12   13 1
    15   13   14 2
    16   13   15 1
    17   15   16 1
    18   16   17 1
    19    1   19 1
    20    1   20 1
    21    1   21 1
    22    2   22 1
    23    2   23 1
    24    3   24 1
    25    3   25 1
    26   10   26 1
    27   12   27 1
    28   12   28 1
    29   16   29 1
    30   16   30 1
    31   17   31 1
    32   17   32 1
    33   17   33 1
    34   18   34 1
    35   18   35 1
    36   18   36 1
@<TRIPOS>MOLECULE
ZINC00061104
 40 42 0 0 0
SMALL
NO_CHARGES


@<TRIPOS>ATOM
      1 C          -7.749     7.063     4.999  C    
      2 C          -8.753     6.651     5.893  C    
      3 C          -9.391     5.414     5.708  C    
      4 C          -9.030     4.579     4.629  C    
      5 C          -8.006     4.976     3.725  C    
      6 C          -7.381     6.232     3.925  C    
      7 C          -7.635     4.149     2.670  C    
      8 N          -6.409     4.161     2.184  N    
      9 C          -5.788     3.500     1.177  C    
     10 C          -6.508     2.703     0.253  C    
     11 C          -5.869     2.140    -0.865  C    
     12 C          -4.504     2.380    -1.082  C    
     13 C          -3.773     3.150    -0.162  C    
     14 C          -4.388     3.679     0.995  C    
     15 N          -3.543     4.329     1.835  N    
     16 C          -3.432     4.790     3.068  C    
     17 C          -4.180     4.433     4.181  C    
     18 C          -4.639     3.100     4.351  C    
     19 C          -5.387     2.728     5.483  C    
     20 C          -5.657     3.673     6.486  C    
     21 C          -5.169     4.986     6.359  C    
     22 C          -4.430     5.368     5.222  C    
     23 O          -4.023     6.667     5.158  O    
     24 O          -9.661     3.379     4.498  O    
     25 H          -7.283     7.964     5.131  H    
     26 H          -9.018     7.253     6.679  H    
     27 H         -10.119     5.118     6.364  H    
     28 H          -6.650     6.561     3.288  H    
     29 H          -8.276     3.468     2.341  H    
     30 H          -7.513     2.551     0.358  H    
     31 H          -6.402     1.580    -1.533  H    
     32 H          -4.038     1.985    -1.904  H    
     33 H          -2.772     3.296    -0.329  H    
     34 H          -2.654     5.383     3.221  H    
     35 H          -4.435     2.384     3.651  H    
     36 H          -5.728     1.768     5.581  H    
     37 H          -6.199     3.406     7.311  H    
     38 H          -5.365     5.665     7.097  H    
     39 H          -3.761     6.830     4.226  H    
     40 H         -10.198     3.267     5.310  H    
@<TRIPOS>BOND
     1    1    6 ar
     2    1    2 ar
     3    2    3 ar
     4    3    4 ar
     5    4    5 ar
     6    4   24 1
     7    5    6 ar
     8    5    7 1
     9    7    8 2
    10    8    9 1
    11    9   14 ar
    12    9   10 ar
    13   10   11 ar
    14   11   12 ar
    15   12   13 ar
    16   13   14 ar
    17   14   15 1
    18   15   16 2
    19   16   17 1
    20   17   22 ar
    21   17   18 ar
    22   18   19 ar
    23   19   20 ar
    24   20   21 ar
    25   21   22 ar
    26   22   23 1
    27    1   25 1
    28    2   26 1
    29    3   27 1
    30    6   28 1
    31    7   29 1
    32   10   30 1
    33   11   31 1
    34   12   32 1
    35   13   33 1
    36   16   34 1
    37   18   35 1
    38   19   36 1
    39   20   37 1
    40   21   38 1
    41   23   39 1
    42   24   40 1
@<TRIPOS>MOLECULE
ZINC00065718
 33 34 0 0 0
SMALL
NO_CHARGES


@<TRIPOS>ATOM
      1 C           4.946     3.300    -0.979  C    
      2 C           5.865     2.600    -1.767  C    
      3 C           5.626     1.253    -2.086  C    
      4 C           4.457     0.568    -1.646  C    
      5 C           3.534     1.293    -0.819  C    
      6 C           3.801     2.650    -0.500  C    
      7 C           2.440     0.688    -0.199  C    
      8 N           1.246     1.153    -0.085  N    
      9 N           0.758     2.234    -0.544  N    
     10 C          -0.496     2.620    -0.356  C    
     11 O          -1.245     1.881     0.276  O    
     12 C          -0.981     3.833    -0.866  C    
     13 C          -0.107     4.854    -1.329  C    
     14 C          -0.602     6.072    -1.835  C    
     15 C          -1.988     6.294    -1.894  C    
     16 C          -2.881     5.304    -1.442  C    
     17 C          -2.376     4.095    -0.930  C    
     18 O          -4.223     5.504    -1.491  O    
     19 O           0.242     7.044    -2.268  O    
     20 N           4.259    -0.724    -2.069  N    
     21 O           5.083    -1.340    -2.698  O    
     22 O           3.145    -1.383    -1.903  O    
     23 H           5.122     4.278    -0.734  H    
     24 H           6.705     3.071    -2.112  H    
     25 H           6.320     0.785    -2.675  H    
     26 H           3.183     3.178     0.123  H    
     27 H           2.583    -0.204     0.209  H    
     28 H           1.339     2.801    -1.070  H    
     29 H           0.907     4.732    -1.287  H    
     30 H          -2.349     7.176    -2.262  H    
     31 H          -3.051     3.394    -0.611  H    
     32 H          -4.348     6.385    -1.900  H    
     33 H           1.146     6.710    -2.090  H    
@<TRIPOS>BOND
     1    1    6 ar
     2    1    2 ar
     3    2    3 ar
     4    3    4 ar
     5    4    5 ar
     6    4   20 1
     7    5    6 ar
     8    5    7 1
     9    7    8 2
    10    8    9 1
    11    9   10 1
    12   10   11 2
    13   10   12 1
    14   12   17 ar
    15   12   13 ar
    16   13   14 ar
    17   14   15 ar
    18   14   19 1
    19   15   16 ar
    20   16   17 ar
    21   16   18 1
    22   20   21 2
    23   20   22 1
    24    1   23 1
    25    2   24 1
    26    3   25 1
    27    6   26 1
    28    7   27 1
    29    9   28 1
    30   13   29 1
    31   15   30 1
    32   17   31 1
    33   18   32 1
    34   19   33 1
@<TRIPOS>MOLECULE
ZINC00117732
 45 46 0 0 0
SMALL
NO_CHARGES


@<TRIPOS>ATOM
      1 C          -7.326     0.889    -2.291  C    
      2 C          -6.143     1.218    -1.467  C    
      3 C          -5.065     1.971    -1.990  C    
      4 C          -3.948     2.270    -1.191  C    
      5 C          -3.870     1.813     0.150  C    
      6 C          -4.954     1.072     0.672  C    
      7 C          -6.076     0.774    -0.126  C    
      8 O          -2.835     2.067     1.024  O    
      9 C          -1.537     2.445     0.519  C    
     10 C          -0.530     2.518     1.559  C    
     11 O          -0.828     2.212     2.704  O    
     12 N           0.692     2.888     1.203  N    
     13 C           1.835     3.095     1.933  C    
     14 C           1.925     3.142     3.344  C    
     15 C           3.158     3.378     3.981  C    
     16 C           4.341     3.594     3.232  C    
     17 C           4.246     3.558     1.822  C    
     18 C           3.014     3.314     1.188  C    
     19 C           5.578     3.844     3.882  C    
     20 O           6.685     4.172     3.171  O    
     21 O           5.666     3.788     5.243  O    
     22 C           6.806     4.004     6.089  C    
     23 C           6.294     4.089     7.548  C    
     24 C           7.871     2.889     5.921  C    
     25 H          -7.439    -0.198    -2.352  H    
     26 H          -7.241     1.280    -3.307  H    
     27 H          -8.222     1.313    -1.832  H    
     28 H          -5.089     2.309    -2.954  H    
     29 H          -3.193     2.823    -1.598  H    
     30 H          -4.930     0.745     1.638  H    
     31 H          -6.845     0.230     0.274  H    
     32 H          -1.209     1.719    -0.234  H    
     33 H          -1.614     3.436     0.060  H    
     34 H           0.794     3.046     0.252  H    
     35 H           1.101     3.024     3.928  H    
     36 H           3.176     3.400     5.004  H    
     37 H           5.070     3.716     1.239  H    
     38 H           2.983     3.308     0.165  H    
     39 H           7.259     4.966     5.831  H    
     40 H           5.563     4.895     7.637  H    
     41 H           7.121     4.299     8.231  H    
     42 H           5.819     3.151     7.841  H    
     43 H           7.440     1.912     6.144  H    
     44 H           8.714     3.066     6.594  H    
     45 H           8.250     2.875     4.898  H    
@<TRIPOS>BOND
     1    1    2 1
     2    2    7 ar
     3    2    3 ar
     4    3    4 ar
     5    4    5 ar
     6    5    6 ar
     7    5    8 1
     8    6    7 ar
     9    8    9 1
    10    9   10 1
    11   10   11 2
    12   10   12 1
    13   12   13 1
    14   13   18 ar
    15   13   14 ar
    16   14   15 ar
    17   15   16 ar
    18   16   17 ar
    19   16   19 1
    20   17   18 ar
    21   19   20 2
    22   19   21 1
    23   21   22 1
    24   22   23 1
    25   22   24 1
    26    1   25 1
    27    1   26 1
    28    1   27 1
    29    3   28 1
    30    4   29 1
    31    6   30 1
    32    7   31 1
    33    9   32 1
    34    9   33 1
    35   12   34 1
    36   14   35 1
    37   15   36 1
    38   17   37 1
    39   18   38 1
    40   22   39 1
    41   23   40 1
    42   23   41 1
    43   23   42 1
    44   24   43 1
    45   24   44 1
    46   24   45 1
@<TRIPOS>MOLECULE
ZINC00117748
 42 43 0 0 0
SMALL
NO_CHARGES


@<TRIPOS>ATOM
      1 C           1.528    -9.040    -3.075  C    
      2 C           2.400    -8.278    -4.103  C    
      3 C           1.722    -8.160    -5.490  C    
      4 O           2.821    -6.997    -3.603  O    
      5 C           2.107    -5.887    -3.256  C    
      6 O           0.756    -5.911    -3.374  O    
      7 C           2.768    -4.727    -2.781  C    
      8 C           4.176    -4.684    -2.652  C    
      9 C           4.833    -3.532    -2.180  C    
     10 C           4.108    -2.373    -1.817  C    
     11 C           2.704    -2.416    -1.945  C    
     12 C           2.045    -3.567    -2.417  C    
     13 N           4.631    -1.199    -1.348  N    
     14 C           5.879    -0.811    -1.106  C    
     15 O           6.849    -1.532    -1.291  O    
     16 C           6.080     0.532    -0.602  C    
     17 O           7.472     0.834    -0.379  O    
     18 C           7.872     2.061     0.099  C    
     19 C           7.024     3.149     0.427  C    
     20 C           7.560     4.358     0.911  C    
     21 C           8.951     4.499     1.073  C    
     22 C           9.807     3.430     0.752  C    
     23 C           9.263     2.223     0.270  C    
     24 Cl         11.478     3.594     0.946  Cl   
     25 H           0.573    -8.534    -2.923  H    
     26 H           2.048    -9.099    -2.116  H    
     27 H           1.331   -10.055    -3.423  H    
     28 H           3.317    -8.856    -4.240  H    
     29 H           1.530    -9.153    -5.904  H    
     30 H           2.374    -7.620    -6.179  H    
     31 H           0.774    -7.626    -5.416  H    
     32 H           4.748    -5.495    -2.902  H    
     33 H           5.848    -3.565    -2.111  H    
     34 H           2.137    -1.601    -1.694  H    
     35 H           1.025    -3.543    -2.490  H    
     36 H           3.963    -0.517    -1.152  H    
     37 H           5.671     1.238    -1.330  H    
     38 H           5.535     0.630     0.342  H    
     39 H           6.015     3.079     0.320  H    
     40 H           6.938     5.135     1.144  H    
     41 H           9.328     5.379     1.424  H    
     42 H           9.889     1.448     0.038  H    
@<TRIPOS>BOND
     1    1    2 1
     2    2    3 1
     3    2    4 1
     4    4    5 1
     5    5    6 2
     6    5    7 1
     7    7   12 ar
     8    7    8 ar
     9    8    9 ar
    10    9   10 ar
    11   10   11 ar
    12   10   13 1
    13   11   12 ar
    14   13   14 1
    15   14   15 2
    16   14   16 1
    17   16   17 1
    18   17   18 1
    19   18   23 ar
    20   18   19 ar
    21   19   20 ar
    22   20   21 ar
    23   21   22 ar
    24   22   23 ar
    25   22   24 1
    26    1   25 1
    27    1   26 1
    28    1   27 1
    29    2   28 1
    30    3   29 1
    31    3   30 1
    32    3   31 1
    33    8   32 1
    34    9   33 1
    35   11   34 1
    36   12   35 1
    37   13   36 1
    38   16   37 1
    39   16   38 1
    40   19   39 1
    41   20   40 1
    42   21   41 1
    43   23   42 1
@<TRIPOS>MOLECULE
ZINC00148950
 44 45 0 0 0
SMALL
NO_CHARGES


@<TRIPOS>ATOM
      1 C           4.318     9.570    12.853  C    
      2 C           3.334     8.378    12.985  C    
      3 C           3.220     7.919    14.459  C    
      4 O           1.996     8.697    12.538  O    
      5 C           1.801     8.931    11.199  C    
      6 C           1.969     7.909    10.245  C    
      7 C           1.686     8.140     8.888  C    
      8 C           1.185     9.391     8.440  C    
      9 C           0.980    10.392     9.424  C    
     10 C           1.299    10.183    10.784  C    
     11 O           1.026    11.139    11.726  O    
     12 C           1.871    12.303    11.665  C    
     13 C           0.870     9.686     7.101  C    
     14 C           1.047     8.896     6.020  C    
     15 C           0.743     9.244     4.737  C    
     16 O           0.527    10.411     4.430  O    
     17 N           0.717     8.300     3.804  N    
     18 C           0.447     8.506     2.417  C    
     19 C           0.497     7.219     1.706  C    
     20 C           1.372     6.860     0.682  C    
     21 C           1.055     5.563     0.313  C    
     22 C          -0.006     5.165     1.118  C    
     23 O          -0.334     6.176     1.956  O    
     24 H           3.950    10.430    13.416  H    
     25 H           4.428     9.854    11.803  H    
     26 H           5.304     9.294    13.233  H    
     27 H           3.735     7.535    12.414  H    
     28 H           4.195     7.611    14.842  H    
     29 H           2.537     7.069    14.532  H    
     30 H           2.835     8.729    15.084  H    
     31 H           2.285     6.981    10.540  H    
     32 H           1.833     7.365     8.243  H    
     33 H           0.580    11.297     9.158  H    
     34 H           2.931    12.039    11.714  H    
     35 H           1.638    12.934    12.524  H    
     36 H           1.686    12.880    10.757  H    
     37 H           0.481    10.587     6.929  H    
     38 H           1.434     7.991     6.154  H    
     39 H           0.900     7.390     4.090  H    
     40 H          -0.550     8.935     2.289  H    
     41 H           1.184     9.198     1.999  H    
     42 H           2.110     7.439     0.276  H    
     43 H           1.511     5.008    -0.413  H    
     44 H          -0.467     4.255     1.085  H    
@<TRIPOS>BOND
     1    1    2 1
     2    2    3 1
     3    2    4 1
     4    4    5 1
     5    5   10 ar
     6    5    6 ar
     7    6    7 ar
     8    7    8 ar
     9    8    9 ar
    10    8   13 1
    11    9   10 ar
    12   10   11 1
    13   11   12 1
    14   13   14 2
    15   14   15 1
    16   15   16 2
    17   15   17 1
    18   17   18 1
    19   18   19 1
    20   19   23 1
    21   19   20 2
    22   20   21 1
    23   21   22 2
    24   22   23 1
    25    1   24 1
    26    1   25 1
    27    1   26 1
    28    2   27 1
    29    3   28 1
    30    3   29 1
    31    3   30 1
    32    6   31 1
    33    7   32 1
    34    9   33 1
    35   12   34 1
    36   12   35 1
    37   12   36 1
    38   13   37 1
    39   14   38 1
    40   17   39 1
    41   18   40 1
    42   18   41 1
    43   20   42 1
    44   21   43 1
    45   22   44 1
@<TRIPOS>MOLECULE
ZINC00233800
 40 42 0 0 0
SMALL
NO_CHARGES


@<TRIPOS>ATOM
      1 C         -10.797    10.823     3.484  C    
      2 C         -10.064    10.331     4.583  C    
      3 C          -9.405     9.089     4.492  C    
      4 C          -9.475     8.341     3.296  C    
      5 C         -10.216     8.830     2.199  C    
      6 C         -10.874    10.072     2.294  C    
      7 S          -8.693     6.789     3.181  S    
      8 C          -7.002     7.411     2.991  C    
      9 C          -6.054     6.287     2.813  C    
     10 C          -5.795     5.396     3.881  C    
     11 C          -4.920     4.311     3.711  C    
     12 C          -4.254     4.095     2.476  C    
     13 C          -4.503     5.011     1.417  C    
     14 C          -5.390     6.086     1.580  C    
     15 C          -3.380     3.020     2.303  C    
     16 O          -2.479     3.102     1.474  O    
     17 N          -3.516     1.897     2.992  N    
     18 N          -2.743     0.891     2.868  N    
     19 C          -2.829    -0.269     3.412  C    
     20 C          -3.848    -0.708     4.239  C    
     21 C          -3.951    -1.981     4.801  C    
     22 C          -5.129    -2.014     5.532  C    
     23 C          -5.718    -0.763     5.406  C    
     24 O          -4.935     0.012     4.621  O    
     25 H         -11.276    11.724     3.556  H    
     26 H         -10.012    10.870     5.451  H    
     27 H          -8.874     8.732     5.292  H    
     28 H         -10.279     8.290     1.330  H    
     29 H         -11.414    10.429     1.502  H    
     30 H          -6.976     8.087     2.132  H    
     31 H          -6.709     7.980     3.876  H    
     32 H          -6.252     5.537     4.787  H    
     33 H          -4.757     3.694     4.512  H    
     34 H          -4.050     4.888     0.502  H    
     35 H          -5.553     6.719     0.788  H    
     36 H          -4.252     1.837     3.617  H    
     37 H          -2.104    -0.907     3.184  H    
     38 H          -3.289    -2.754     4.688  H    
     39 H          -5.500    -2.808     6.052  H    
     40 H          -6.605    -0.472     5.823  H    
@<TRIPOS>BOND
     1    1    6 ar
     2    1    2 ar
     3    2    3 ar
     4    3    4 ar
     5    4    5 ar
     6    4    7 1
     7    5    6 ar
     8    7    8 1
     9    8    9 1
    10    9   14 ar
    11    9   10 ar
    12   10   11 ar
    13   11   12 ar
    14   12   13 ar
    15   12   15 1
    16   13   14 ar
    17   15   16 2
    18   15   17 1
    19   17   18 1
    20   18   19 2
    21   19   20 1
    22   20   24 1
    23   20   21 2
    24   21   22 1
    25   22   23 2
    26   23   24 1
    27    1   25 1
    28    2   26 1
    29    3   27 1
    30    5   28 1
    31    6   29 1
    32    8   30 1
    33    8   31 1
    34   10   32 1
    35   11   33 1
    36   13   34 1
    37   14   35 1
    38   17   36 1
    39   19   37 1
    40   21   38 1
    41   22   39 1
    42   23   40 1
@<TRIPOS>MOLECULE
ZINC00234309
 41 42 0 0 0
SMALL
NO_CHARGES


@<TRIPOS>ATOM
      1 C          -1.340     1.485     5.286  C    
      2 C          -1.411     2.242     3.932  C    
      3 C          -1.677     1.398     2.771  C    
      4 O          -1.790     0.181     2.869  O    
      5 N          -1.775     1.990     1.593  N    
      6 N          -1.913     1.391     0.479  N    
      7 C          -1.920     1.925    -0.690  C    
      8 C          -1.788     3.281    -0.975  C    
      9 C          -2.506     4.268    -0.263  C    
     10 C          -2.318     5.635    -0.535  C    
     11 C          -1.403     6.055    -1.532  C    
     12 C          -0.723     5.067    -2.272  C    
     13 C          -0.922     3.699    -2.012  C    
     14 O          -1.064     7.359    -1.826  O    
     15 C          -1.893     8.451    -1.392  C    
     16 N          -0.157     2.912     3.730  N    
     17 C           0.084     4.161     3.245  C    
     18 C          -0.906     5.127     2.929  C    
     19 C          -0.550     6.379     2.393  C    
     20 C           0.803     6.686     2.154  C    
     21 C           1.797     5.738     2.465  C    
     22 C           1.438     4.493     3.010  C    
     23 Cl          1.226     8.179     1.479  Cl   
     24 H          -2.281     0.960     5.473  H    
     25 H          -1.175     2.190     6.102  H    
     26 H          -0.527     0.755     5.282  H    
     27 H          -2.237     2.946     4.023  H    
     28 H          -1.667     2.951     1.574  H    
     29 H          -1.907     1.286    -1.449  H    
     30 H          -3.177     4.005     0.460  H    
     31 H          -2.845     6.315     0.012  H    
     32 H          -0.060     5.343    -3.001  H    
     33 H          -0.395     3.013    -2.559  H    
     34 H          -2.916     8.340    -1.766  H    
     35 H          -1.478     9.379    -1.790  H    
     36 H          -1.899     8.528    -0.303  H    
     37 H           0.630     2.357     3.863  H    
     38 H          -1.898     4.938     3.076  H    
     39 H          -1.281     7.062     2.175  H    
     40 H           2.782     5.951     2.293  H    
     41 H           2.176     3.818     3.219  H    
@<TRIPOS>BOND
     1    1    2 1
     2    2    3 1
     3    2   16 1
     4    3    4 2
     5    3    5 1
     6    5    6 1
     7    6    7 2
     8    7    8 1
     9    8   13 ar
    10    8    9 ar
    11    9   10 ar
    12   10   11 ar
    13   11   12 ar
    14   11   14 1
    15   12   13 ar
    16   14   15 1
    17   16   17 1
    18   17   22 ar
    19   17   18 ar
    20   18   19 ar
    21   19   20 ar
    22   20   21 ar
    23   20   23 1
    24   21   22 ar
    25    1   24 1
    26    1   25 1
    27    1   26 1
    28    2   27 1
    29    5   28 1
    30    7   29 1
    31    9   30 1
    32   10   31 1
    33   12   32 1
    34   13   33 1
    35   15   34 1
    36   15   35 1
    37   15   36 1
    38   16   37 1
    39   18   38 1
    40   19   39 1
    41   21   40 1
    42   22   41 1
@<TRIPOS>MOLECULE
ZINC00246935
 50 50 0 0 0
SMALL
NO_CHARGES


@<TRIPOS>ATOM
      1 C           6.809    -8.368    -0.106  C    
      2 C           5.716    -7.398     0.171  C    
      3 C           5.828    -6.588     1.328  C    
      4 C           4.860    -5.610     1.642  C    
      5 C           3.737    -5.478     0.805  C    
      6 C           3.595    -6.285    -0.333  C    
      7 C           4.573    -7.256    -0.680  C    
      8 C           4.344    -8.088    -1.917  C    
      9 C           3.098    -9.010    -1.783  C    
     10 C           4.280    -7.222    -3.205  C    
     11 O           4.895    -4.840     2.779  O    
     12 C           6.123    -4.142     3.069  C    
     13 C           5.884    -3.184     4.262  C    
     14 C           7.202    -2.545     4.773  C    
     15 C           7.993    -0.951     6.647  C    
     16 C           7.349     0.243     7.415  C    
     17 C           8.475    -2.016     7.683  C    
     18 C           9.200    -0.429     5.806  C    
     19 O           5.262    -3.883     5.343  O    
     20 N           6.899    -1.503     5.787  N    
     21 H           6.414    -9.383    -0.099  H    
     22 H           7.617    -8.321     0.627  H    
     23 H           7.246    -8.163    -1.083  H    
     24 H           6.622    -6.711     1.966  H    
     25 H           3.008    -4.791     1.030  H    
     26 H           2.755    -6.159    -0.907  H    
     27 H           5.183    -8.771    -2.075  H    
     28 H           3.169    -9.604    -0.864  H    
     29 H           3.045    -9.695    -2.631  H    
     30 H           2.174    -8.425    -1.749  H    
     31 H           3.391    -6.585    -3.214  H    
     32 H           4.247    -7.865    -4.089  H    
     33 H           5.166    -6.586    -3.274  H    
     34 H           6.908    -4.857     3.325  H    
     35 H           6.445    -3.557     2.201  H    
     36 H           5.203    -2.389     3.940  H    
     37 H           7.834    -3.324     5.198  H    
     38 H           7.732    -2.081     3.940  H    
     39 H           6.497    -0.094     8.018  H    
     40 H           6.990     1.004     6.713  H    
     41 H           8.078     0.714     8.086  H    
     42 H           9.173    -1.572     8.400  H    
     43 H           8.988    -2.844     7.186  H    
     44 H           7.626    -2.423     8.238  H    
     45 H           8.858     0.293     5.060  H    
     46 H           9.695    -1.253     5.286  H    
     47 H           9.938     0.056     6.449  H    
     48 H           4.396    -4.175     4.993  H    
     49 H           6.475    -0.715     5.287  H    
     50 H           6.189    -1.881     6.418  H    
@<TRIPOS>BOND
     1    1    2 1
     2    2    7 ar
     3    2    3 ar
     4    3    4 ar
     5    4    5 ar
     6    4   11 1
     7    5    6 ar
     8    6    7 ar
     9    7    8 1
    10    8    9 1
    11    8   10 1
    12   11   12 1
    13   12   13 1
    14   13   14 1
    15   13   19 1
    16   14   20 1
    17   15   16 1
    18   15   17 1
    19   15   18 1
    20   15   20 1
    21    1   21 1
    22    1   22 1
    23    1   23 1
    24    3   24 1
    25    5   25 1
    26    6   26 1
    27    8   27 1
    28    9   28 1
    29    9   29 1
    30    9   30 1
    31   10   31 1
    32   10   32 1
    33   10   33 1
    34   12   34 1
    35   12   35 1
    36   13   36 1
    37   14   37 1
    38   14   38 1
    39   16   39 1
    40   16   40 1
    41   16   41 1
    42   17   42 1
    43   17   43 1
    44   17   44 1
    45   18   45 1
    46   18   46 1
    47   18   47 1
    48   19   48 1
    49   20   49 1
    50   20   50 1
@<TRIPOS>MOLECULE
ZINC00246955
 36 37 0 0 0
SMALL
NO_CHARGES


@<TRIPOS>ATOM
      1 C          -4.553    -2.653     2.462  C    
      2 O          -3.965    -1.768     3.428  O    
      3 C          -3.377    -0.589     3.031  C    
      4 C          -3.009    -0.232     1.712  C    
      5 C          -2.381     0.999     1.444  C    
      6 C          -2.080     1.910     2.491  C    
      7 C          -2.440     1.544     3.810  C    
      8 C          -3.081     0.319     4.070  C    
      9 C          -1.432     3.125     2.268  C    
     10 N          -1.095     3.520     1.093  N    
     11 N          -0.467     4.598     0.842  N    
     12 C          -0.111     4.990    -0.376  C    
     13 O          -0.438     4.297    -1.336  O    
     14 C           0.598     6.181    -0.585  C    
     15 C           0.437     7.277     0.302  C    
     16 C           1.110     8.513     0.124  C    
     17 C           1.971     8.637    -0.995  C    
     18 C           2.157     7.567    -1.885  C    
     19 C           1.488     6.345    -1.682  C    
     20 O           1.775     5.355    -2.568  O    
     21 N           0.933     9.547     0.999  N    
     22 O           1.486    10.609     0.878  O    
     23 O           0.152     9.460     2.043  O    
     24 H          -5.323    -2.140     1.883  H    
     25 H          -5.024    -3.481     2.995  H    
     26 H          -3.792    -3.060     1.794  H    
     27 H          -3.182    -0.869     0.932  H    
     28 H          -2.139     1.218     0.476  H    
     29 H          -2.240     2.163     4.599  H    
     30 H          -3.324     0.086     5.034  H    
     31 H          -1.207     3.704     3.049  H    
     32 H          -0.220     5.159     1.595  H    
     33 H          -0.211     7.182     1.087  H    
     34 H           2.478     9.509    -1.168  H    
     35 H           2.793     7.677    -2.679  H    
     36 H           1.577     4.507    -2.108  H    
@<TRIPOS>BOND
     1    1    2 1
     2    2    3 1
     3    3    8 ar
     4    3    4 ar
     5    4    5 ar
     6    5    6 ar
     7    6    7 ar
     8    6    9 1
     9    7    8 ar
    10    9   10 2
    11   10   11 1
    12   11   12 1
    13   12   13 2
    14   12   14 1
    15   14   19 ar
    16   14   15 ar
    17   15   16 ar
    18   16   17 ar
    19   16   21 1
    20   17   18 ar
    21   18   19 ar
    22   19   20 1
    23   21   22 2
    24   21   23 1
    25    1   24 1
    26    1   25 1
    27    1   26 1
    28    4   27 1
    29    5   28 1
    30    7   29 1
    31    8   30 1
    32    9   31 1
    33   11   32 1
    34   15   33 1
    35   17   34 1
    36   18   35 1
    37   20   36 1
@<TRIPOS>MOLECULE
ZINC00247809
 44 45 0 0 0
SMALL
NO_CHARGES


@<TRIPOS>ATOM
      1 C           7.053    -9.683    -5.697  C    
      2 O           5.680    -9.262    -5.639  O    
      3 C           5.259    -8.970    -4.370  C    
      4 C           5.267    -7.635    -3.918  C    
      5 C           4.802    -7.319    -2.628  C    
      6 C           4.317    -8.331    -1.767  C    
      7 C           4.299    -9.666    -2.236  C    
      8 C           4.758    -9.982    -3.528  C    
      9 C           3.809    -8.004    -0.406  C    
     10 C           4.758    -8.493     0.721  C    
     11 N           4.252    -8.204     2.028  N    
     12 C           4.192    -7.012     2.610  C    
     13 O           4.608    -6.018     2.024  O    
     14 C           3.631    -6.908     3.847  C    
     15 C           3.793    -5.862     4.686  C    
     16 C           3.204    -5.686     5.949  C    
     17 C           2.150    -6.493     6.454  C    
     18 C           1.587    -6.252     7.721  C    
     19 C           2.067    -5.201     8.526  C    
     20 C           3.096    -4.375     8.037  C    
     21 C           3.656    -4.617     6.769  C    
     22 O           1.498    -4.933     9.740  O    
     23 C           2.041    -5.724    10.812  C    
     24 H           7.724    -8.914    -5.306  H    
     25 H           7.310    -9.860    -6.742  H    
     26 H           7.205   -10.614    -5.146  H    
     27 H           5.612    -6.891    -4.528  H    
     28 H           4.823    -6.343    -2.321  H    
     29 H           3.942   -10.417    -1.641  H    
     30 H           4.727   -10.950    -3.856  H    
     31 H           3.671    -6.924    -0.305  H    
     32 H           2.825    -8.463    -0.276  H    
     33 H           4.864    -9.578     0.652  H    
     34 H           5.752    -8.052     0.600  H    
     35 H           3.934    -8.961     2.545  H    
     36 H           3.081    -7.677     4.150  H    
     37 H           4.409    -5.140     4.382  H    
     38 H           1.756    -7.256     5.903  H    
     39 H           0.821    -6.842     8.056  H    
     40 H           3.436    -3.593     8.602  H    
     41 H           4.404    -3.994     6.451  H    
     42 H           1.857    -6.790    10.652  H    
     43 H           1.547    -5.428    11.737  H    
     44 H           3.115    -5.553    10.928  H    
@<TRIPOS>BOND
     1    1    2 1
     2    2    3 1
     3    3    8 ar
     4    3    4 ar
     5    4    5 ar
     6    5    6 ar
     7    6    7 ar
     8    6    9 1
     9    7    8 ar
    10    9   10 1
    11   10   11 1
    12   11   12 1
    13   12   13 2
    14   12   14 1
    15   14   15 2
    16   15   16 1
    17   16   21 ar
    18   16   17 ar
    19   17   18 ar
    20   18   19 ar
    21   19   20 ar
    22   19   22 1
    23   20   21 ar
    24   22   23 1
    25    1   24 1
    26    1   25 1
    27    1   26 1
    28    4   27 1
    29    5   28 1
    30    7   29 1
    31    8   30 1
    32    9   31 1
    33    9   32 1
    34   10   33 1
    35   10   34 1
    36   11   35 1
    37   14   36 1
    38   15   37 1
    39   17   38 1
    40   18   39 1
    41   20   40 1
    42   21   41 1
    43   23   42 1
    44   23   43 1
    45   23   44 1
@<TRIPOS>MOLECULE
ZINC00299510
 56 57 0 0 0
SMALL
NO_CHARGES


@<TRIPOS>ATOM
      1 C           5.873   -12.100    -3.984  C    
      2 C           5.357   -10.670    -4.305  C    
      3 C           4.152   -10.743    -5.286  C    
      4 C           5.021    -9.897    -2.991  C    
      5 C           4.769    -8.378    -3.184  C    
      6 N           4.619    -7.690    -1.940  N    
      7 C           3.582    -7.754    -1.113  C    
      8 O           2.598    -8.429    -1.402  O    
      9 C           3.625    -6.996     0.134  C    
     10 C           4.604    -7.663     1.145  C    
     11 C           4.683    -6.857     2.467  C    
     12 C           2.381    -5.992     2.149  C    
     13 C           2.239    -6.775     0.820  C    
     14 C           3.361    -6.005     4.437  C    
     15 C           3.939    -6.865     5.610  C    
     16 C           3.158    -8.195     5.818  C    
     17 C           4.023    -6.072     6.879  C    
     18 C           5.286    -5.786     7.469  C    
     19 C           5.378    -5.051     8.666  C    
     20 C           4.211    -4.578     9.297  C    
     21 C           2.949    -4.848     8.729  C    
     22 C           2.857    -5.586     7.532  C    
     23 N           3.330    -6.673     3.091  N    
     24 H           5.107   -12.681    -3.463  H    
     25 H           6.764   -12.049    -3.354  H    
     26 H           6.142   -12.622    -4.906  H    
     27 H           6.171   -10.143    -4.813  H    
     28 H           4.421   -11.321    -6.174  H    
     29 H           3.861    -9.745    -5.615  H    
     30 H           3.294   -11.220    -4.806  H    
     31 H           4.145   -10.353    -2.521  H    
     32 H           5.858   -10.001    -2.295  H    
     33 H           5.633    -7.940    -3.689  H    
     34 H           3.888    -8.198    -3.806  H    
     35 H           5.346    -7.100    -1.677  H    
     36 H           4.012    -6.000    -0.107  H    
     37 H           4.266    -8.678     1.374  H    
     38 H           5.606    -7.725     0.712  H    
     39 H           5.348    -7.410     3.134  H    
     40 H           5.144    -5.884     2.269  H    
     41 H           2.719    -4.972     1.940  H    
     42 H           1.386    -5.932     2.604  H    
     43 H           1.577    -6.217     0.149  H    
     44 H           1.769    -7.740     1.038  H    
     45 H           2.340    -5.726     4.721  H    
     46 H           3.939    -5.075     4.363  H    
     47 H           4.952    -7.160     5.327  H    
     48 H           2.097    -8.002     5.998  H    
     49 H           3.567    -8.739     6.675  H    
     50 H           3.254    -8.831     4.935  H    
     51 H           6.152    -6.115     7.027  H    
     52 H           6.296    -4.857     9.079  H    
     53 H           4.279    -4.038    10.168  H    
     54 H           2.100    -4.503     9.187  H    
     55 H           1.927    -5.768     7.140  H    
     56 H           2.949    -7.609     3.243  H    
@<TRIPOS>BOND
     1    1    2 1
     2    2    3 1
     3    2    4 1
     4    4    5 1
     5    5    6 1
     6    6    7 1
     7    7    8 2
     8    7    9 1
     9    9   13 1
    10    9   10 1
    11   10   11 1
    12   11   23 1
    13   12   13 1
    14   12   23 1
    15   14   15 1
    16   14   23 1
    17   15   16 1
    18   15   17 1
    19   17   22 ar
    20   17   18 ar
    21   18   19 ar
    22   19   20 ar
    23   20   21 ar
    24   21   22 ar
    25    1   24 1
    26    1   25 1
    27    1   26 1
    28    2   27 1
    29    3   28 1
    30    3   29 1
    31    3   30 1
    32    4   31 1
    33    4   32 1
    34    5   33 1
    35    5   34 1
    36    6   35 1
    37    9   36 1
    38   10   37 1
    39   10   38 1
    40   11   39 1
    41   11   40 1
    42   12   41 1
    43   12   42 1
    44   13   43 1
    45   13   44 1
    46   14   45 1
    47   14   46 1
    48   15   47 1
    49   16   48 1
    50   16   49 1
    51   16   50 1
    52   18   51 1
    53   19   52 1
    54   20   53 1
    55   21   54 1
    56   22   55 1
    57   23   56 1
@<TRIPOS>MOLECULE
ZINC00317502
 56 58 0 0 0
SMALL
NO_CHARGES


@<TRIPOS>ATOM
      1 C           8.263    -8.330    -1.798  C    
      2 C           6.758    -8.612    -1.952  C    
      3 O           6.092    -7.396    -2.339  O    
      4 C           4.731    -7.398    -2.162  C    
      5 C           3.914    -8.165    -3.021  C    
      6 C           2.515    -8.150    -2.878  C    
      7 C           1.920    -7.351    -1.886  C    
      8 C           2.724    -6.562    -1.047  C    
      9 C           4.136    -6.575    -1.170  C    
     10 C           4.940    -5.709    -0.258  C    
     11 C           5.343    -4.953     2.073  C    
     12 C           5.016    -5.187     3.572  C    
     13 C           5.448    -6.611     4.026  C    
     14 C           4.822    -7.681     3.084  C    
     15 C           5.158    -7.386     1.597  C    
     16 C           5.126    -6.855     5.428  C    
     17 O           3.956    -6.806     5.787  O    
     18 N           6.097    -7.100     6.299  N    
     19 C           5.959    -7.330     7.702  C    
     20 C           5.239    -8.662     8.041  C    
     21 C           5.243    -9.008     9.541  C    
     22 C           5.071   -10.536     9.542  C    
     23 C           5.402   -10.949     8.094  C    
     24 O           5.888    -9.781     7.422  O    
     25 N           4.730    -6.005     1.197  N    
     26 H           8.655    -7.855    -2.702  H    
     27 H           8.801    -9.265    -1.630  H    
     28 H           8.428    -7.667    -0.945  H    
     29 H           6.616    -9.372    -2.728  H    
     30 H           6.379    -9.004    -1.002  H    
     31 H           4.335    -8.734    -3.760  H    
     32 H           1.937    -8.716    -3.501  H    
     33 H           0.903    -7.335    -1.785  H    
     34 H           2.269    -5.977    -0.343  H    
     35 H           6.010    -5.772    -0.480  H    
     36 H           4.642    -4.675    -0.468  H    
     37 H           4.956    -3.968     1.797  H    
     38 H           6.430    -4.930     1.940  H    
     39 H           5.533    -4.433     4.170  H    
     40 H           3.941    -5.055     3.713  H    
     41 H           6.535    -6.674     3.901  H    
     42 H           5.201    -8.673     3.346  H    
     43 H           3.734    -7.694     3.198  H    
     44 H           6.233    -7.515     1.436  H    
     45 H           4.638    -8.132     0.991  H    
     46 H           7.003    -7.099     5.953  H    
     47 H           6.968    -7.355     8.119  H    
     48 H           5.429    -6.494     8.162  H    
     49 H           4.203    -8.608     7.690  H    
     50 H           6.199    -8.744    10.001  H    
     51 H           4.435    -8.504    10.075  H    
     52 H           5.753   -11.004    10.257  H    
     53 H           4.045   -10.811     9.795  H    
     54 H           6.165   -11.732     8.067  H    
     55 H           4.507   -11.316     7.583  H    
     56 H           3.721    -5.957     1.359  H    
@<TRIPOS>BOND
     1    1    2 1
     2    2    3 1
     3    3    4 1
     4    4    9 ar
     5    4    5 ar
     6    5    6 ar
     7    6    7 ar
     8    7    8 ar
     9    8    9 ar
    10    9   10 1
    11   10   25 1
    12   11   12 1
    13   11   25 1
    14   12   13 1
    15   13   14 1
    16   13   16 1
    17   14   15 1
    18   15   25 1
    19   16   17 2
    20   16   18 1
    21   18   19 1
    22   19   20 1
    23   20   24 1
    24   20   21 1
    25   21   22 1
    26   22   23 1
    27   23   24 1
    28    1   26 1
    29    1   27 1
    30    1   28 1
    31    2   29 1
    32    2   30 1
    33    5   31 1
    34    6   32 1
    35    7   33 1
    36    8   34 1
    37   10   35 1
    38   10   36 1
    39   11   37 1
    40   11   38 1
    41   12   39 1
    42   12   40 1
    43   13   41 1
    44   14   42 1
    45   14   43 1
    46   15   44 1
    47   15   45 1
    48   18   46 1
    49   19   47 1
    50   19   48 1
    51   20   49 1
    52   21   50 1
    53   21   51 1
    54   22   52 1
    55   22   53 1
    56   23   54 1
    57   23   55 1
    58   25   56 1
@<TRIPOS>MOLECULE
ZINC00319111
 46 47 0 0 0
SMALL
NO_CHARGES


@<TRIPOS>ATOM
      1 C           2.726    -3.634    -2.356  C    
      2 O           2.027    -4.857    -2.062  O    
      3 C           2.727    -5.746    -1.286  C    
      4 C           2.906    -5.523     0.096  C    
      5 C           3.605    -6.442     0.916  C    
      6 C           4.135    -7.602     0.294  C    
      7 C           3.927    -7.866    -1.075  C    
      8 C           3.214    -6.936    -1.865  C    
      9 O           3.069    -7.150    -3.210  O    
     10 C           1.831    -7.783    -3.575  C    
     11 O           4.474    -8.972    -1.677  O    
     12 C           3.862   -10.222    -1.315  C    
     13 C           3.770    -6.145     2.276  C    
     14 C           4.070    -7.023     3.257  C    
     15 C           4.224    -6.698     4.570  C    
     16 O           4.501    -5.551     4.902  O    
     17 N           4.106    -7.655     5.480  N    
     18 C           4.272    -7.531     6.897  C    
     19 C           5.463    -8.391     7.382  C    
     20 C           6.836    -7.967     6.822  C    
     21 C           7.820    -8.410     7.915  C    
     22 C           6.918    -8.757     9.116  C    
     23 O           5.601    -8.285     8.806  O    
     24 H           2.744    -2.982    -1.477  H    
     25 H           2.186    -3.113    -3.148  H    
     26 H           3.754    -3.814    -2.698  H    
     27 H           2.513    -4.673     0.506  H    
     28 H           4.700    -8.263     0.829  H    
     29 H           1.735    -8.768    -3.118  H    
     30 H           1.822    -7.915    -4.655  H    
     31 H           0.967    -7.172    -3.300  H    
     32 H           4.130   -10.500    -0.293  H    
     33 H           4.240   -10.997    -1.987  H    
     34 H           2.771   -10.190    -1.404  H    
     35 H           3.607    -5.202     2.552  H    
     36 H           4.134    -7.985     3.023  H    
     37 H           3.906    -8.546     5.151  H    
     38 H           4.424    -6.495     7.213  H    
     39 H           3.356    -7.887     7.373  H    
     40 H           5.267    -9.437     7.121  H    
     41 H           7.045    -8.447     5.861  H    
     42 H           6.881    -6.883     6.699  H    
     43 H           8.391    -9.285     7.595  H    
     44 H           8.510    -7.600     8.160  H    
     45 H           6.888    -9.837     9.279  H    
     46 H           7.273    -8.269    10.028  H    
@<TRIPOS>BOND
     1    1    2 1
     2    2    3 1
     3    3    8 ar
     4    3    4 ar
     5    4    5 ar
     6    5    6 ar
     7    5   13 1
     8    6    7 ar
     9    7    8 ar
    10    7   11 1
    11    8    9 1
    12    9   10 1
    13   11   12 1
    14   13   14 2
    15   14   15 1
    16   15   16 2
    17   15   17 1
    18   17   18 1
    19   18   19 1
    20   19   23 1
    21   19   20 1
    22   20   21 1
    23   21   22 1
    24   22   23 1
    25    1   24 1
    26    1   25 1
    27    1   26 1
    28    4   27 1
    29    6   28 1
    30   10   29 1
    31   10   30 1
    32   10   31 1
    33   12   32 1
    34   12   33 1
    35   12   34 1
    36   13   35 1
    37   14   36 1
    38   17   37 1
    39   18   38 1
    40   18   39 1
    41   19   40 1
    42   20   41 1
    43   20   42 1
    44   21   43 1
    45   21   44 1
    46   22   45 1
    47   22   46 1
@<TRIPOS>MOLECULE
ZINC00340702
 45 45 0 0 0
SMALL
NO_CHARGES


@<TRIPOS>ATOM
      1 C           3.222   -10.735     0.445  C    
      2 C           4.055   -10.249    -0.762  C    
      3 C           6.186    -9.029    -1.261  C    
      4 C           7.291    -9.963    -0.717  C    
      5 C           4.192    -7.763    -0.417  C    
      6 C           4.761    -6.778     0.646  C    
      7 C           4.155    -5.441     0.707  C    
      8 O           3.186    -5.219    -0.013  O    
      9 C           4.637    -4.404     1.534  C    
     10 C           5.579    -4.641     2.573  C    
     11 C           6.065    -3.592     3.374  C    
     12 C           5.635    -2.268     3.170  C    
     13 C           4.711    -2.012     2.134  C    
     14 C           4.212    -3.060     1.341  C    
     15 O           6.225    -1.296     3.940  O    
     16 C           5.406    -0.305     4.607  C    
     17 C           4.394    -0.921     5.613  C    
     18 C           6.374     0.662     5.326  C    
     19 N           4.934    -9.073    -0.426  N    
     20 H           3.882   -10.973     1.283  H    
     21 H           2.669   -11.633     0.170  H    
     22 H           2.508    -9.975     0.760  H    
     23 H           4.652   -11.104    -1.083  H    
     24 H           3.385   -10.003    -1.595  H    
     25 H           6.620    -8.024    -1.274  H    
     26 H           5.970    -9.287    -2.301  H    
     27 H           7.514    -9.718     0.321  H    
     28 H           8.202    -9.842    -1.306  H    
     29 H           6.983   -11.007    -0.776  H    
     30 H           3.137    -7.911    -0.172  H    
     31 H           4.226    -7.296    -1.407  H    
     32 H           4.642    -7.254     1.625  H    
     33 H           5.830    -6.648     0.459  H    
     34 H           5.928    -5.580     2.766  H    
     35 H           6.749    -3.797     4.106  H    
     36 H           4.403    -1.061     1.938  H    
     37 H           3.550    -2.822     0.597  H    
     38 H           4.858     0.287     3.865  H    
     39 H           3.699    -1.583     5.094  H    
     40 H           3.816    -0.128     6.100  H    
     41 H           4.924    -1.499     6.381  H    
     42 H           6.938     0.138     6.106  H    
     43 H           5.822     1.491     5.783  H    
     44 H           7.081     1.079     4.605  H    
     45 H           5.247    -9.226     0.537  H    
@<TRIPOS>BOND
     1    1    2 1
     2    2   19 1
     3    3    4 1
     4    3   19 1
     5    5    6 1
     6    5   19 1
     7    6    7 1
     8    7    8 2
     9    7    9 1
    10    9   14 ar
    11    9   10 ar
    12   10   11 ar
    13   11   12 ar
    14   12   13 ar
    15   12   15 1
    16   13   14 ar
    17   15   16 1
    18   16   17 1
    19   16   18 1
    20    1   20 1
    21    1   21 1
    22    1   22 1
    23    2   23 1
    24    2   24 1
    25    3   25 1
    26    3   26 1
    27    4   27 1
    28    4   28 1
    29    4   29 1
    30    5   30 1
    31    5   31 1
    32    6   32 1
    33    6   33 1
    34   10   34 1
    35   11   35 1
    36   13   36 1
    37   14   37 1
    38   16   38 1
    39   17   39 1
    40   17   40 1
    41   17   41 1
    42   18   42 1
    43   18   43 1
    44   18   44 1
    45   19   45 1
@<TRIPOS>MOLECULE
ZINC00353812
 45 46 0 0 0
SMALL
NO_CHARGES


@<TRIPOS>ATOM
      1 C           5.588   -12.954    -0.697  C    
      2 C           4.468   -12.158    -0.141  C    
      3 C           3.125   -12.498    -0.399  C    
      4 C           2.078   -11.733     0.143  C    
      5 C           2.334   -10.604     0.960  C    
      6 C           3.689   -10.249     1.199  C    
      7 C           4.736   -11.032     0.666  C    
      8 O           4.008    -9.181     1.993  O    
      9 C           4.365    -7.990     1.253  C    
     10 C           4.314    -6.855     2.147  C    
     11 O           3.243    -6.594     2.681  O    
     12 N           5.380    -6.094     2.329  N    
     13 N           5.372    -5.057     3.063  N    
     14 C           6.359    -4.253     3.201  C    
     15 C           6.231    -3.144     4.001  C    
     16 C           7.183    -2.148     4.190  C    
     17 C           6.636    -1.215     5.057  C    
     18 C           5.363    -1.664     5.386  C    
     19 O           5.135    -2.830     4.736  O    
     20 C           4.407    -0.993     6.276  C    
     21 C           1.195    -9.825     1.554  C    
     22 C           0.324    -9.147     0.462  C    
     23 C           0.342   -10.692     2.519  C    
     24 H           6.220   -12.312    -1.315  H    
     25 H           5.237   -13.783    -1.313  H    
     26 H           6.191   -13.362     0.117  H    
     27 H           2.892   -13.307    -0.984  H    
     28 H           1.118   -12.016    -0.065  H    
     29 H           5.706   -10.773     0.866  H    
     30 H           5.371    -8.116     0.832  H    
     31 H           3.670    -7.790     0.425  H    
     32 H           6.195    -6.325     1.858  H    
     33 H           7.210    -4.407     2.708  H    
     34 H           8.108    -2.100     3.763  H    
     35 H           7.082    -0.360     5.388  H    
     36 H           4.833    -0.900     7.276  H    
     37 H           3.489    -1.573     6.337  H    
     38 H           4.177    -0.003     5.890  H    
     39 H           1.586    -9.007     2.164  H    
     40 H           0.947    -8.538    -0.196  H    
     41 H          -0.418    -8.495     0.931  H    
     42 H          -0.202    -9.886    -0.142  H    
     43 H          -0.189   -11.482     1.982  H    
     44 H          -0.395   -10.070     3.036  H    
     45 H           0.980   -11.157     3.272  H    
@<TRIPOS>BOND
     1    1    2 1
     2    2    7 ar
     3    2    3 ar
     4    3    4 ar
     5    4    5 ar
     6    5    6 ar
     7    5   21 1
     8    6    7 ar
     9    6    8 1
    10    8    9 1
    11    9   10 1
    12   10   11 2
    13   10   12 1
    14   12   13 1
    15   13   14 2
    16   14   15 1
    17   15   19 1
    18   15   16 2
    19   16   17 1
    20   17   18 2
    21   18   19 1
    22   18   20 1
    23   21   22 1
    24   21   23 1
    25    1   24 1
    26    1   25 1
    27    1   26 1
    28    3   27 1
    29    4   28 1
    30    7   29 1
    31    9   30 1
    32    9   31 1
    33   12   32 1
    34   14   33 1
    35   16   34 1
    36   17   35 1
    37   20   36 1
    38   20   37 1
    39   20   38 1
    40   21   39 1
    41   22   40 1
    42   22   41 1
    43   22   42 1
    44   23   43 1
    45   23   44 1
    46   23   45 1
@<TRIPOS>MOLECULE
ZINC00362551
 45 46 0 0 0
SMALL
NO_CHARGES


@<TRIPOS>ATOM
      1 C           5.780   -11.630    -1.899  C    
      2 C           4.403   -11.333    -1.271  C    
      3 O           3.943   -10.008    -1.566  O    
      4 C           4.354    -8.831    -1.016  C    
      5 O           5.297    -8.838    -0.048  O    
      6 C           3.794    -7.608    -1.474  C    
      7 C           3.464    -7.502    -2.849  C    
      8 C           2.930    -6.317    -3.378  C    
      9 C           2.700    -5.221    -2.538  C    
     10 C           3.005    -5.308    -1.170  C    
     11 C           3.574    -6.486    -0.622  C    
     12 N           3.801    -6.610     0.728  N    
     13 C           4.122    -5.689     1.630  C    
     14 O           4.395    -4.536     1.322  O    
     15 C           4.361    -6.122     2.992  C    
     16 O           4.234    -5.023     3.923  O    
     17 C           4.576    -5.323     5.222  C    
     18 C           5.903    -5.074     5.669  C    
     19 C           6.237    -5.355     7.013  C    
     20 C           5.272    -5.846     7.905  C    
     21 C           3.951    -6.041     7.474  C    
     22 C           3.581    -5.768     6.137  C    
     23 C           2.163    -5.905     5.719  C    
     24 C           6.920    -4.499     4.755  C    
     25 H           5.725   -11.510    -2.985  H    
     26 H           6.081   -12.651    -1.676  H    
     27 H           6.535   -10.945    -1.506  H    
     28 H           3.671   -12.036    -1.678  H    
     29 H           4.445   -11.481    -0.186  H    
     30 H           3.628    -8.283    -3.486  H    
     31 H           2.698    -6.259    -4.371  H    
     32 H           2.296    -4.362    -2.918  H    
     33 H           2.772    -4.510    -0.577  H    
     34 H           3.764    -7.517     1.070  H    
     35 H           3.638    -6.900     3.247  H    
     36 H           5.360    -6.565     3.032  H    
     37 H           7.188    -5.199     7.356  H    
     38 H           5.526    -6.039     8.875  H    
     39 H           3.258    -6.371     8.149  H    
     40 H           1.816    -4.961     5.294  H    
     41 H           1.505    -6.154     6.555  H    
     42 H           2.060    -6.690     4.972  H    
     43 H           7.116    -5.191     3.935  H    
     44 H           7.869    -4.301     5.262  H    
     45 H           6.554    -3.554     4.345  H    
@<TRIPOS>BOND
     1    1    2 1
     2    2    3 1
     3    3    4 1
     4    4    5 2
     5    4    6 1
     6    6   11 ar
     7    6    7 ar
     8    7    8 ar
     9    8    9 ar
    10    9   10 ar
    11   10   11 ar
    12   11   12 1
    13   12   13 1
    14   13   14 2
    15   13   15 1
    16   15   16 1
    17   16   17 1
    18   17   22 ar
    19   17   18 ar
    20   18   19 ar
    21   18   24 1
    22   19   20 ar
    23   20   21 ar
    24   21   22 ar
    25   22   23 1
    26    1   25 1
    27    1   26 1
    28    1   27 1
    29    2   28 1
    30    2   29 1
    31    7   30 1
    32    8   31 1
    33    9   32 1
    34   10   33 1
    35   12   34 1
    36   15   35 1
    37   15   36 1
    38   19   37 1
    39   20   38 1
    40   21   39 1
    41   23   40 1
    42   23   41 1
    43   23   42 1
    44   24   43 1
    45   24   44 1
    46   24   45 1
@<TRIPOS>MOLECULE
ZINC00371010
 44 45 0 0 0
SMALL
NO_CHARGES


@<TRIPOS>ATOM
      1 C           1.844    -5.597     2.115  C    
      2 C           1.351    -4.287     1.456  C    
      3 C           2.483    -3.414     1.023  C    
      4 C           2.979    -2.415     1.886  C    
      5 S           4.258    -1.616     1.070  S    
      6 C           4.187    -2.523    -0.389  C    
      7 C           3.151    -3.477    -0.243  C    
      8 C           2.827    -4.377    -1.302  C    
      9 O           2.191    -5.553    -1.071  O    
     10 O           3.172    -4.095    -2.590  O    
     11 C           2.931    -4.895    -3.754  C    
     12 C           3.576    -4.236    -4.988  C    
     13 N           5.023    -2.386    -1.466  N    
     14 C           5.854    -1.399    -1.777  C    
     15 O           5.975    -0.405    -1.069  O    
     16 C           6.618    -1.537    -3.008  C    
     17 C           7.480    -0.377    -3.379  C    
     18 C           6.896     0.838    -3.807  C    
     19 C           7.696     1.939    -4.160  C    
     20 C           9.099     1.842    -4.088  C    
     21 C           9.694     0.640    -3.668  C    
     22 C           8.893    -0.462    -3.317  C    
     23 F           9.842     2.866    -4.410  F    
     24 C           2.543    -2.050     3.249  C    
     25 H           2.479    -6.168     1.435  H    
     26 H           0.986    -6.214     2.389  H    
     27 H           2.416    -5.379     3.023  H    
     28 H           0.691    -4.510     0.614  H    
     29 H           0.724    -3.767     2.183  H    
     30 H           3.364    -5.890    -3.614  H    
     31 H           1.852    -4.994    -3.917  H    
     32 H           3.140    -3.247    -5.163  H    
     33 H           3.408    -4.858    -5.870  H    
     34 H           4.654    -4.127    -4.833  H    
     35 H           4.997    -3.110    -2.110  H    
     36 H           7.232    -2.435    -2.907  H    
     37 H           5.928    -1.713    -3.836  H    
     38 H           5.876     0.927    -3.863  H    
     39 H           7.257     2.810    -4.467  H    
     40 H          10.714     0.564    -3.610  H    
     41 H           9.346    -1.325    -3.004  H    
     42 H           1.500    -1.726     3.237  H    
     43 H           3.153    -1.238     3.646  H    
     44 H           2.643    -2.914     3.911  H    
@<TRIPOS>BOND
     1    1    2 1
     2    2    3 1
     3    3    7 1
     4    3    4 2
     5    4    5 1
     6    4   24 1
     7    5    6 1
     8    6    7 2
     9    6   13 1
    10    7    8 1
    11    8    9 2
    12    8   10 1
    13   10   11 1
    14   11   12 1
    15   13   14 1
    16   14   15 2
    17   14   16 1
    18   16   17 1
    19   17   22 ar
    20   17   18 ar
    21   18   19 ar
    22   19   20 ar
    23   20   21 ar
    24   20   23 1
    25   21   22 ar
    26    1   25 1
    27    1   26 1
    28    1   27 1
    29    2   28 1
    30    2   29 1
    31   11   30 1
    32   11   31 1
    33   12   32 1
    34   12   33 1
    35   12   34 1
    36   13   35 1
    37   16   36 1
    38   16   37 1
    39   18   38 1
    40   19   39 1
    41   21   40 1
    42   22   41 1
    43   24   42 1
    44   24   43 1
    45   24   44 1
@<TRIPOS>MOLECULE
ZINC00386745
 44 45 0 0 0
SMALL
NO_CHARGES


@<TRIPOS>ATOM
      1 C           4.974    -5.980     2.734  C    
      2 C           5.190    -7.354     2.947  C    
      3 C           4.475    -8.344     2.222  C    
      4 C           3.520    -7.873     1.280  C    
      5 C           3.301    -6.499     1.066  C    
      6 C           4.043    -5.528     1.777  C    
      7 N           3.906    -4.168     1.650  N    
      8 C           3.401    -3.426     0.668  C    
      9 O           3.013    -3.935    -0.378  O    
     10 C           3.431    -2.070     0.807  C    
     11 C           2.823    -1.193    -0.016  C    
     12 C           2.878     0.179     0.132  C    
     13 O           3.533     0.784     1.152  O    
     14 N           4.700    -9.692     2.422  N    
     15 C           6.005   -10.228     2.774  C    
     16 C           5.911   -11.069     4.071  C    
     17 C           3.559   -11.591     3.522  C    
     18 C           3.670   -10.704     2.250  C    
     19 C           4.824   -13.006     5.176  C    
     20 C           4.057   -14.341     4.977  C    
     21 O           4.263   -15.223     6.080  O    
     22 O           2.265     0.975    -0.774  O    
     23 N           4.884   -12.149     3.941  N    
     24 H           5.507    -5.303     3.287  H    
     25 H           5.845    -7.614     3.690  H    
     26 H           3.003    -8.534     0.698  H    
     27 H           2.591    -6.229     0.387  H    
     28 H           4.291    -3.660     2.385  H    
     29 H           3.945    -1.702     1.578  H    
     30 H           2.300    -1.539    -0.787  H    
     31 H           6.347   -10.881     1.961  H    
     32 H           6.783    -9.470     2.900  H    
     33 H           6.897   -11.512     4.257  H    
     34 H           5.671   -10.407     4.913  H    
     35 H           3.129   -10.997     4.333  H    
     36 H           2.867   -12.403     3.296  H    
     37 H           2.679   -10.279     2.077  H    
     38 H           3.917   -11.335     1.386  H    
     39 H           4.375   -12.452     6.007  H    
     40 H           5.843   -13.279     5.473  H    
     41 H           2.985   -14.157     4.891  H    
     42 H           4.406   -14.832     4.064  H    
     43 H           5.231   -15.393     6.086  H    
     44 H           5.199   -12.762     3.182  H    
@<TRIPOS>BOND
     1    1    6 ar
     2    1    2 ar
     3    2    3 ar
     4    3    4 ar
     5    3   14 1
     6    4    5 ar
     7    5    6 ar
     8    6    7 1
     9    7    8 1
    10    8    9 2
    11    8   10 1
    12   10   11 2
    13   11   12 1
    14   12   13 2
    15   12   22 1
    16   14   18 1
    17   14   15 1
    18   15   16 1
    19   16   23 1
    20   17   18 1
    21   17   23 1
    22   19   20 1
    23   19   23 1
    24   20   21 1
    25    1   24 1
    26    2   25 1
    27    4   26 1
    28    5   27 1
    29    7   28 1
    30   10   29 1
    31   11   30 1
    32   15   31 1
    33   15   32 1
    34   16   33 1
    35   16   34 1
    36   17   35 1
    37   17   36 1
    38   18   37 1
    39   18   38 1
    40   19   39 1
    41   19   40 1
    42   20   41 1
    43   20   42 1
    44   21   43 1
    45   23   44 1
@<TRIPOS>MOLECULE
ZINC00395073
 49 50 0 0 0
SMALL
NO_CHARGES


@<TRIPOS>ATOM
      1 C           9.761    -7.819     9.097  C    
      2 N           8.437    -7.361     8.704  N    
      3 C           7.495    -7.273     9.807  C    
      4 C           8.135    -7.053     7.424  C    
      5 O           8.997    -7.156     6.561  O    
      6 N           6.913    -6.685     7.038  N    
      7 C           6.415    -6.286     5.821  C    
      8 C           7.171    -5.761     4.742  C    
      9 C           6.541    -5.349     3.552  C    
     10 C           5.136    -5.442     3.404  C    
     11 C           4.378    -5.949     4.485  C    
     12 C           5.011    -6.357     5.674  C    
     13 C           4.466    -5.010     2.149  C    
     14 C           4.265    -6.160     1.227  C    
     15 C           3.007    -6.797     1.109  C    
     16 C           2.828    -7.882     0.230  C    
     17 C           3.904    -8.369    -0.551  C    
     18 C           5.152    -7.715    -0.445  C    
     19 C           5.336    -6.637     0.438  C    
     20 N           3.829    -9.391    -1.461  N    
     21 C           2.993   -10.425    -1.565  C    
     22 O           2.148   -10.593    -0.693  O    
     23 N           3.085   -11.304    -2.584  N    
     24 C           2.179   -12.434    -2.657  C    
     25 C           4.083   -11.141    -3.623  C    
     26 H          10.184    -7.135     9.838  H    
     27 H          10.484    -7.887     8.281  H    
     28 H           9.689    -8.816     9.542  H    
     29 H           7.359    -8.260    10.255  H    
     30 H           6.506    -6.900     9.551  H    
     31 H           7.890    -6.605    10.577  H    
     32 H           6.235    -6.744     7.723  H    
     33 H           8.182    -5.635     4.818  H    
     34 H           7.116    -4.976     2.791  H    
     35 H           3.357    -6.019     4.417  H    
     36 H           4.433    -6.707     6.443  H    
     37 H           3.509    -4.534     2.394  H    
     38 H           5.053    -4.242     1.641  H    
     39 H           2.209    -6.470     1.660  H    
     40 H           1.894    -8.289     0.147  H    
     41 H           5.945    -8.028    -1.012  H    
     42 H           6.258    -6.193     0.492  H    
     43 H           4.538    -9.377    -2.120  H    
     44 H           2.301   -13.057    -1.770  H    
     45 H           2.336   -13.071    -3.529  H    
     46 H           1.146   -12.077    -2.696  H    
     47 H           3.932   -10.190    -4.139  H    
     48 H           4.065   -11.927    -4.381  H    
     49 H           5.083   -11.146    -3.183  H    
@<TRIPOS>BOND
     1    1    2 1
     2    2    3 1
     3    2    4 1
     4    4    5 2
     5    4    6 1
     6    6    7 1
     7    7   12 ar
     8    7    8 ar
     9    8    9 ar
    10    9   10 ar
    11   10   11 ar
    12   10   13 1
    13   11   12 ar
    14   13   14 1
    15   14   19 ar
    16   14   15 ar
    17   15   16 ar
    18   16   17 ar
    19   17   18 ar
    20   17   20 1
    21   18   19 ar
    22   20   21 1
    23   21   22 2
    24   21   23 1
    25   23   24 1
    26   23   25 1
    27    1   26 1
    28    1   27 1
    29    1   28 1
    30    3   29 1
    31    3   30 1
    32    3   31 1
    33    6   32 1
    34    8   33 1
    35    9   34 1
    36   11   35 1
    37   12   36 1
    38   13   37 1
    39   13   38 1
    40   15   39 1
    41   16   40 1
    42   18   41 1
    43   19   42 1
    44   20   43 1
    45   24   44 1
    46   24   45 1
    47   24   46 1
    48   25   47 1
    49   25   48 1
    50   25   49 1
@<TRIPOS>MOLECULE
ZINC00399444
 44 46 0 0 0
SMALL
NO_CHARGES


@<TRIPOS>ATOM
      1 C           8.062   -11.623    -1.814  C    
      2 C           8.058   -11.870    -0.429  C    
      3 C           6.903   -11.605     0.335  C    
      4 C           5.735   -11.095    -0.282  C    
      5 C           5.757   -10.835    -1.672  C    
      6 C           6.912   -11.101    -2.433  C    
      7 C           4.524   -10.802     0.516  C    
      8 O           4.610    -9.463     1.019  O    
      9 C           3.690    -8.840     1.801  C    
     10 O           2.574    -9.496     2.201  O    
     11 N           3.914    -7.551     2.141  N    
     12 C           3.092    -6.754     3.009  C    
     13 C           3.294    -7.167     4.500  C    
     14 C           4.683    -7.002     4.993  C    
     15 C           5.724    -7.916     4.827  C    
     16 N           6.838    -7.445     5.409  N    
     17 C           6.571    -6.249     5.947  C    
     18 C           5.230    -5.940     5.709  C    
     19 C           4.691    -4.726     6.176  C    
     20 C           5.525    -3.831     6.881  C    
     21 C           6.879    -4.152     7.116  C    
     22 C           7.414    -5.371     6.651  C    
     23 C           3.327    -5.329     2.799  C    
     24 O           4.316    -4.903     2.217  O    
     25 N           2.467    -4.447     3.250  N    
     26 H           8.897   -11.815    -2.366  H    
     27 H           8.895   -12.239     0.024  H    
     28 H           6.924   -11.782     1.340  H    
     29 H           4.938   -10.443    -2.138  H    
     30 H           6.916   -10.910    -3.436  H    
     31 H           3.626   -10.888    -0.105  H    
     32 H           4.425   -11.515     1.341  H    
     33 H           4.714    -7.136     1.778  H    
     34 H           2.048    -6.940     2.739  H    
     35 H           2.612    -6.595     5.131  H    
     36 H           3.010    -8.217     4.620  H    
     37 H           5.658    -8.817     4.342  H    
     38 H           7.697    -7.900     5.438  H    
     39 H           3.712    -4.488     6.010  H    
     40 H           5.147    -2.945     7.223  H    
     41 H           7.476    -3.498     7.627  H    
     42 H           8.392    -5.610     6.819  H    
     43 H           2.624    -3.497     3.116  H    
     44 H           1.664    -4.740     3.710  H    
@<TRIPOS>BOND
     1    1    6 ar
     2    1    2 ar
     3    2    3 ar
     4    3    4 ar
     5    4    5 ar
     6    4    7 1
     7    5    6 ar
     8    7    8 1
     9    8    9 1
    10    9   10 2
    11    9   11 1
    12   11   12 1
    13   12   13 1
    14   12   23 1
    15   13   14 1
    16   14   18 1
    17   14   15 2
    18   15   16 1
    19   16   17 1
    20   17   22 ar
    21   17   18 ar
    22   18   19 ar
    23   19   20 ar
    24   20   21 ar
    25   21   22 ar
    26   23   24 2
    27   23   25 1
    28    1   26 1
    29    2   27 1
    30    3   28 1
    31    5   29 1
    32    6   30 1
    33    7   31 1
    34    7   32 1
    35   11   33 1
    36   12   34 1
    37   13   35 1
    38   13   36 1
    39   15   37 1
    40   16   38 1
    41   19   39 1
    42   20   40 1
    43   21   41 1
    44   22   42 1
    45   25   43 1
    46   25   44 1
@<TRIPOS>MOLECULE
ZINC00435900
 43 44 0 0 0
SMALL
NO_CHARGES


@<TRIPOS>ATOM
      1 C          -1.347    -0.870     0.785  C    
      2 C          -1.988     0.464     0.750  C    
      3 C          -1.397     1.580     1.375  C    
      4 C          -2.025     2.836     1.330  C    
      5 C          -3.255     3.023     0.649  C    
      6 C          -3.871     1.894     0.030  C    
      7 C          -3.222     0.636     0.086  C    
      8 C          -5.162     2.002    -0.709  C    
      9 C          -3.858     4.284     0.645  C    
     10 N          -3.283     5.423     0.494  N    
     11 N          -2.064     5.660     0.227  N    
     12 C          -1.535     6.871     0.219  C    
     13 O          -2.199     7.860     0.513  O    
     14 C          -0.111     7.021    -0.023  C    
     15 O           0.632     7.350     1.173  O    
     16 C           0.717     6.336     2.098  C    
     17 C          -0.158     6.341     3.205  C    
     18 C          -0.107     5.305     4.156  C    
     19 C           0.825     4.259     4.012  C    
     20 C           1.716     4.260     2.924  C    
     21 C           1.684     5.307     1.977  C    
     22 O           2.547     5.272     0.914  O    
     23 C           3.744     6.043     1.128  C    
     24 H          -2.016    -1.579     1.269  H    
     25 H          -0.404    -0.865     1.334  H    
     26 H          -1.147    -1.209    -0.234  H    
     27 H          -0.510     1.487     1.876  H    
     28 H          -1.580     3.609     1.829  H    
     29 H          -3.651    -0.178    -0.365  H    
     30 H          -5.956     2.307    -0.027  H    
     31 H          -5.465     1.059    -1.170  H    
     32 H          -5.069     2.747    -1.503  H    
     33 H          -4.844     4.327     0.741  H    
     34 H          -1.478     4.908     0.042  H    
     35 H           0.304     6.123    -0.496  H    
     36 H           0.033     7.839    -0.732  H    
     37 H          -0.843     7.089     3.310  H    
     38 H          -0.751     5.309     4.951  H    
     39 H           0.856     3.502     4.700  H    
     40 H           2.395     3.505     2.826  H    
     41 H           3.518     7.109     1.210  H    
     42 H           4.401     5.899     0.268  H    
     43 H           4.282     5.712     2.021  H    
@<TRIPOS>BOND
     1    1    2 1
     2    2    7 ar
     3    2    3 ar
     4    3    4 ar
     5    4    5 ar
     6    5    6 ar
     7    5    9 1
     8    6    7 ar
     9    6    8 1
    10    9   10 2
    11   10   11 1
    12   11   12 1
    13   12   13 2
    14   12   14 1
    15   14   15 1
    16   15   16 1
    17   16   21 ar
    18   16   17 ar
    19   17   18 ar
    20   18   19 ar
    21   19   20 ar
    22   20   21 ar
    23   21   22 1
    24   22   23 1
    25    1   24 1
    26    1   25 1
    27    1   26 1
    28    3   27 1
    29    4   28 1
    30    7   29 1
    31    8   30 1
    32    8   31 1
    33    8   32 1
    34    9   33 1
    35   11   34 1
    36   14   35 1
    37   14   36 1
    38   17   37 1
    39   18   38 1
    40   19   39 1
    41   20   40 1
    42   23   41 1
    43   23   42 1
    44   23   43 1
@<TRIPOS>MOLECULE
ZINC00566096
 42 43 0 0 0
SMALL
NO_CHARGES


@<TRIPOS>ATOM
      1 C           9.568   -10.643    -1.783  C    
      2 C           8.486   -10.134    -0.912  C    
      3 C           8.680    -9.947     0.477  C    
      4 C           7.641    -9.453     1.286  C    
      5 C           6.382    -9.135     0.729  C    
      6 C           6.188    -9.330    -0.660  C    
      7 C           7.227    -9.821    -1.470  C    
      8 C           5.279    -8.606     1.566  C    
      9 O           4.929    -7.292     1.091  O    
     10 C           3.966    -6.672     1.840  C    
     11 C           2.602    -6.915     1.587  C    
     12 C           1.611    -6.264     2.343  C    
     13 C           1.962    -5.351     3.371  C    
     14 C           3.338    -5.082     3.582  C    
     15 C           4.336    -5.726     2.822  C    
     16 O           5.654    -5.467     3.092  O    
     17 C           6.227    -4.471     2.230  C    
     18 C           1.013    -4.678     4.139  C    
     19 N          -0.147    -5.088     4.512  N    
     20 N          -0.703    -6.176     4.345  N    
     21 C          -1.898    -6.444     4.758  C    
     22 S          -3.019    -5.268     5.285  S    
     23 N          -2.281    -7.664     4.741  N    
     24 H           9.247   -11.565    -2.272  H    
     25 H          10.480   -10.855    -1.222  H    
     26 H           9.804    -9.901    -2.548  H    
     27 H           9.580   -10.167     0.909  H    
     28 H           7.812    -9.325     2.288  H    
     29 H           5.286    -9.112    -1.090  H    
     30 H           7.060    -9.950    -2.473  H    
     31 H           4.424    -9.284     1.484  H    
     32 H           5.576    -8.562     2.619  H    
     33 H           2.327    -7.567     0.846  H    
     34 H           0.632    -6.444     2.109  H    
     35 H           3.631    -4.418     4.306  H    
     36 H           6.281    -4.830     1.200  H    
     37 H           7.244    -4.270     2.573  H    
     38 H           5.666    -3.536     2.264  H    
     39 H           1.260    -3.785     4.491  H    
     40 H          -0.197    -6.879     3.994  H    
     41 H          -3.136    -7.891     5.046  H    
     42 H          -1.702    -8.333     4.439  H    
@<TRIPOS>BOND
     1    1    2 1
     2    2    7 ar
     3    2    3 ar
     4    3    4 ar
     5    4    5 ar
     6    5    6 ar
     7    5    8 1
     8    6    7 ar
     9    8    9 1
    10    9   10 1
    11   10   15 ar
    12   10   11 ar
    13   11   12 ar
    14   12   13 ar
    15   13   14 ar
    16   13   18 1
    17   14   15 ar
    18   15   16 1
    19   16   17 1
    20   18   19 2
    21   19   20 1
    22   20   21 1
    23   21   22 2
    24   21   23 1
    25    1   24 1
    26    1   25 1
    27    1   26 1
    28    3   27 1
    29    4   28 1
    30    6   29 1
    31    7   30 1
    32    8   31 1
    33    8   32 1
    34   11   33 1
    35   12   34 1
    36   14   35 1
    37   17   36 1
    38   17   37 1
    39   17   38 1
    40   18   39 1
    41   20   40 1
    42   23   41 1
    43   23   42 1
@<TRIPOS>MOLECULE
ZINC00617570
 38 39 0 0 0
SMALL
NO_CHARGES


@<TRIPOS>ATOM
      1 C           7.781    -8.991     1.960  C    
      2 C           6.816    -7.928     1.385  C    
      3 C           5.883    -7.239     2.434  C    
      4 C           4.851    -6.378     1.857  C    
      5 O           4.816    -6.175     0.649  O    
      6 N           3.976    -5.816     2.688  N    
      7 C           2.972    -4.949     2.410  C    
      8 N           2.212    -4.477     3.408  N    
      9 N           1.345    -3.650     3.028  N    
     10 C           1.352    -3.405     1.773  C    
     11 S           2.513    -4.277     0.877  S    
     12 C           0.462    -2.456     1.149  C    
     13 O           1.245    -1.387     0.586  O    
     14 C           0.474    -0.377    -0.093  C    
     15 O           6.634    -6.379     3.326  O    
     16 C           7.168    -6.895     4.483  C    
     17 C           6.382    -7.553     5.456  C    
     18 C           6.962    -7.997     6.661  C    
     19 C           8.325    -7.751     6.920  C    
     20 C           9.107    -7.067     5.971  C    
     21 C           8.528    -6.635     4.761  C    
     22 H           8.541    -8.525     2.587  H    
     23 H           8.288    -9.511     1.143  H    
     24 H           7.236    -9.729     2.550  H    
     25 H           7.401    -7.165     0.862  H    
     26 H           6.193    -8.437     0.642  H    
     27 H           5.355    -8.036     2.976  H    
     28 H           4.087    -6.040     3.626  H    
     29 H          -0.104    -2.970     0.368  H    
     30 H          -0.244    -2.055     1.885  H    
     31 H          -0.088    -0.804    -0.927  H    
     32 H           1.157     0.373    -0.493  H    
     33 H          -0.217     0.120     0.593  H    
     34 H           5.382    -7.705     5.295  H    
     35 H           6.391    -8.483     7.354  H    
     36 H           8.738    -8.056     7.805  H    
     37 H          10.091    -6.872     6.166  H    
     38 H           9.102    -6.130     4.082  H    
@<TRIPOS>BOND
     1    1    2 1
     2    2    3 1
     3    3    4 1
     4    3   15 1
     5    4    5 2
     6    4    6 1
     7    6    7 1
     8    7   11 1
     9    7    8 2
    10    8    9 1
    11    9   10 2
    12   10   11 1
    13   10   12 1
    14   12   13 1
    15   13   14 1
    16   15   16 1
    17   16   21 ar
    18   16   17 ar
    19   17   18 ar
    20   18   19 ar
    21   19   20 ar
    22   20   21 ar
    23    1   22 1
    24    1   23 1
    25    1   24 1
    26    2   25 1
    27    2   26 1
    28    3   27 1
    29    6   28 1
    30   12   29 1
    31   12   30 1
    32   14   31 1
    33   14   32 1
    34   14   33 1
    35   17   34 1
    36   18   35 1
    37   19   36 1
    38   20   37 1
    39   21   38 1
@<TRIPOS>MOLECULE
ZINC00627970
 50 52 0 0 0
SMALL
NO_CHARGES


@<TRIPOS>ATOM
      1 C           1.888     6.855     0.442  C    
      2 C           1.389     7.696     1.509  C    
      3 O           0.829     8.735     1.186  O    
      4 N           1.516     7.294     2.768  N    
      5 C           1.118     7.868     3.950  C    
      6 C           0.658     9.197     4.122  C    
      7 C           0.263     9.669     5.390  C    
      8 C           0.319     8.830     6.531  C    
      9 C           0.810     7.518     6.361  C    
     10 C           1.204     7.045     5.095  C    
     11 N          -0.046     9.166     7.811  N    
     12 C          -0.640    10.243     8.311  C    
     13 O          -1.022    11.180     7.623  O    
     14 C          -0.904    10.280     9.738  C    
     15 N           0.315    10.357    10.509  N    
     16 C           0.990    11.543    10.629  C    
     17 C           0.459    12.518    11.506  C    
     18 C           1.095    13.758    11.673  C    
     19 C           2.271    14.045    10.964  C    
     20 C           2.829    13.086    10.086  C    
     21 C           2.193    11.817     9.922  C    
     22 C           2.787    10.871     9.044  C    
     23 C           3.965    11.178     8.342  C    
     24 C           4.577    12.431     8.506  C    
     25 C           4.015    13.382     9.378  C    
     26 S           0.764     9.074    11.516  S    
     27 O           0.734     7.717    10.691  O    
     28 O           2.286     9.227    11.955  O    
     29 C          -0.242     8.918    13.002  C    
     30 H           1.066     6.563    -0.216  H    
     31 H           2.356     5.945     0.826  H    
     32 H           2.630     7.400    -0.143  H    
     33 H           1.936     6.424     2.867  H    
     34 H           0.613     9.846     3.335  H    
     35 H          -0.056    10.635     5.462  H    
     36 H           0.878     6.885     7.167  H    
     37 H           1.550     6.082     5.015  H    
     38 H           0.151     8.482     8.472  H    
     39 H          -1.549    11.127     9.991  H    
     40 H          -1.476     9.385     9.994  H    
     41 H          -0.400    12.327    12.030  H    
     42 H           0.700    14.454    12.313  H    
     43 H           2.716    14.960    11.094  H    
     44 H           2.374     9.946     8.909  H    
     45 H           4.380    10.486     7.708  H    
     46 H           5.434    12.649     7.994  H    
     47 H           4.480    14.288     9.489  H    
     48 H          -0.174     9.835    13.588  H    
     49 H           0.118     8.080    13.598  H    
     50 H          -1.282     8.743    12.727  H    
@<TRIPOS>BOND
     1    1    2 1
     2    2    3 2
     3    2    4 1
     4    4    5 1
     5    5   10 ar
     6    5    6 ar
     7    6    7 ar
     8    7    8 ar
     9    8    9 ar
    10    8   11 1
    11    9   10 ar
    12   11   12 1
    13   12   13 2
    14   12   14 1
    15   14   15 1
    16   15   16 1
    17   15   26 1
    18   16   21 ar
    19   16   17 ar
    20   17   18 ar
    21   18   19 ar
    22   19   20 ar
    23   20   25 ar
    24   20   21 ar
    25   21   22 ar
    26   22   23 ar
    27   23   24 ar
    28   24   25 ar
    29   26   27 2
    30   26   28 2
    31   26   29 1
    32    1   30 1
    33    1   31 1
    34    1   32 1
    35    4   33 1
    36    6   34 1
    37    7   35 1
    38    9   36 1
    39   10   37 1
    40   11   38 1
    41   14   39 1
    42   14   40 1
    43   17   41 1
    44   18   42 1
    45   19   43 1
    46   22   44 1
    47   23   45 1
    48   24   46 1
    49   25   47 1
    50   29   48 1
    51   29   49 1
    52   29   50 1
@<TRIPOS>MOLECULE
ZINC00635525
 59 62 0 0 0
SMALL
NO_CHARGES


@<TRIPOS>ATOM
      1 C          -5.044    -5.410    -2.910  C    
      2 C          -4.490    -3.977    -2.785  C    
      3 O          -4.693    -3.280    -4.032  O    
      4 C          -4.099    -2.044    -4.063  C    
      5 C          -4.820    -0.924    -3.599  C    
      6 C          -4.238     0.355    -3.618  C    
      7 C          -2.932     0.523    -4.111  C    
      8 C          -2.206    -0.586    -4.583  C    
      9 C          -2.776    -1.881    -4.558  C    
     10 C          -2.085    -2.968    -5.078  C    
     11 C          -0.882    -3.435    -4.683  C    
     12 C          -0.130    -3.052    -3.617  C    
     13 O          -0.460    -2.188    -2.816  O    
     14 N           0.970    -3.769    -3.445  N    
     15 C           1.070    -4.729    -4.373  C    
     16 N           2.059    -5.640    -4.314  N    
     17 C           2.989    -5.665    -3.351  C    
     18 C           3.011    -4.700    -2.388  C    
     19 C           1.976    -3.630    -2.406  C    
     20 C           2.619    -2.295    -2.552  C    
     21 C           3.390    -1.834    -3.627  C    
     22 C           3.884    -0.525    -3.483  C    
     23 C           3.513     0.103    -2.293  C    
     24 S           2.555    -1.013    -1.405  S    
     25 C           3.983    -4.647    -1.384  C    
     26 O           3.667    -4.158    -0.158  O    
     27 O           5.287    -4.929    -1.663  O    
     28 C           6.382    -4.854    -0.740  C    
     29 C           7.733    -5.183    -1.432  C    
     30 C           8.917    -4.985    -0.447  C    
     31 C           7.749    -6.615    -2.032  C    
     32 C           3.843    -6.847    -3.413  C    
     33 S          -0.200    -4.756    -5.538  S    
     34 H          -6.104    -5.383    -3.183  H    
     35 H          -4.934    -5.934    -1.959  H    
     36 H          -4.493    -5.958    -3.678  H    
     37 H          -5.015    -3.462    -1.975  H    
     38 H          -3.423    -4.045    -2.532  H    
     39 H          -5.774    -1.040    -3.246  H    
     40 H          -4.766     1.162    -3.280  H    
     41 H          -2.513     1.454    -4.136  H    
     42 H          -1.264    -0.439    -4.956  H    
     43 H          -2.569    -3.481    -5.781  H    
     44 H           1.444    -3.671    -1.450  H    
     45 H           3.590    -2.408    -4.448  H    
     46 H           4.466    -0.071    -4.189  H    
     47 H           3.766     1.048    -1.997  H    
     48 H           6.421    -3.837    -0.336  H    
     49 H           6.203    -5.551     0.084  H    
     50 H           7.870    -4.476    -2.257  H    
     51 H           8.922    -3.966    -0.056  H    
     52 H           9.868    -5.154    -0.955  H    
     53 H           8.841    -5.681     0.392  H    
     54 H           7.567    -7.364    -1.257  H    
     55 H           8.717    -6.820    -2.498  H    
     56 H           6.982    -6.713    -2.801  H    
     57 H           3.254    -7.732    -3.677  H    
     58 H           4.329    -7.081    -2.463  H    
     59 H           4.608    -6.699    -4.180  H    
@<TRIPOS>BOND
     1    1    2 1
     2    2    3 1
     3    3    4 1
     4    4    9 ar
     5    4    5 ar
     6    5    6 ar
     7    6    7 ar
     8    7    8 ar
     9    8    9 ar
    10    9   10 1
    11   10   11 2
    12   11   33 1
    13   11   12 1
    14   12   13 2
    15   12   14 1
    16   14   19 1
    17   14   15 1
    18   15   16 2
    19   15   33 1
    20   16   17 1
    21   17   18 2
    22   17   32 1
    23   18   19 1
    24   18   25 1
    25   19   20 1
    26   20   24 1
    27   20   21 2
    28   21   22 1
    29   22   23 2
    30   23   24 1
    31   25   26 2
    32   25   27 1
    33   27   28 1
    34   28   29 1
    35   29   30 1
    36   29   31 1
    37    1   34 1
    38    1   35 1
    39    1   36 1
    40    2   37 1
    41    2   38 1
    42    5   39 1
    43    6   40 1
    44    7   41 1
    45    8   42 1
    46   10   43 1
    47   19   44 1
    48   21   45 1
    49   22   46 1
    50   23   47 1
    51   28   48 1
    52   28   49 1
    53   29   50 1
    54   30   51 1
    55   30   52 1
    56   30   53 1
    57   31   54 1
    58   31   55 1
    59   31   56 1
    60   32   57 1
    61   32   58 1
    62   32   59 1
@<TRIPOS>MOLECULE
ZINC00645328
 55 57 0 0 0
SMALL
NO_CHARGES


@<TRIPOS>ATOM
      1 C           1.885    -3.445    -0.174  C    
      2 O           3.271    -3.791    -0.358  O    
      3 C           3.599    -4.071    -1.661  C    
      4 C           3.452    -5.389    -2.140  C    
      5 C           3.816    -5.710    -3.460  C    
      6 C           4.344    -4.718    -4.301  C    
      7 C           4.514    -3.410    -3.825  C    
      8 C           4.157    -3.070    -2.497  C    
      9 N           4.327    -1.828    -1.965  N    
     10 S           5.175    -0.536    -2.642  S    
     11 O           4.376     0.031    -3.894  O    
     12 O           6.639    -1.006    -3.051  O    
     13 C           5.256     0.741    -1.458  C    
     14 C           6.489     1.290    -1.061  C    
     15 C           6.531     2.296    -0.082  C    
     16 C           5.340     2.781     0.503  C    
     17 C           4.080     2.227     0.131  C    
     18 C           4.068     1.215    -0.864  C    
     19 C           2.881     2.640     0.725  C    
     20 O           2.788     3.765     1.199  O    
     21 N           1.829     1.824     0.801  N    
     22 C           0.548     2.108     1.384  C    
     23 C           0.630     2.199     2.939  C    
     24 C          -0.768     2.402     3.580  C    
     25 C          -1.766     1.297     3.144  C    
     26 C          -1.854     1.190     1.599  C    
     27 C          -0.453     0.991     0.961  C    
     28 O           5.445     3.694     1.521  O    
     29 C           5.725     5.042     1.098  C    
     30 H           1.587    -2.604    -0.811  H    
     31 H           1.747    -3.146     0.867  H    
     32 H           1.235    -4.303    -0.376  H    
     33 H           3.082    -6.117    -1.525  H    
     34 H           3.702    -6.665    -3.804  H    
     35 H           4.609    -4.954    -5.261  H    
     36 H           4.903    -2.712    -4.460  H    
     37 H           3.990    -1.688    -1.069  H    
     38 H           7.367     0.960    -1.469  H    
     39 H           7.437     2.667     0.211  H    
     40 H           3.184     0.811    -1.176  H    
     41 H           1.934     0.942     0.410  H    
     42 H           0.181     3.061     0.985  H    
     43 H           1.079     1.281     3.338  H    
     44 H           1.268     3.038     3.229  H    
     45 H          -0.671     2.391     4.669  H    
     46 H          -1.161     3.382     3.286  H    
     47 H          -1.445     0.335     3.556  H    
     48 H          -2.758     1.523     3.548  H    
     49 H          -2.497     0.345     1.333  H    
     50 H          -2.309     2.100     1.195  H    
     51 H          -0.560     0.993    -0.128  H    
     52 H          -0.062     0.011     1.258  H    
     53 H           6.746     5.128     0.721  H    
     54 H           5.625     5.696     1.965  H    
     55 H           5.024     5.384     0.330  H    
@<TRIPOS>BOND
     1    1    2 1
     2    2    3 1
     3    3    8 ar
     4    3    4 ar
     5    4    5 ar
     6    5    6 ar
     7    6    7 ar
     8    7    8 ar
     9    8    9 1
    10    9   10 1
    11   10   11 2
    12   10   12 2
    13   10   13 1
    14   13   18 ar
    15   13   14 ar
    16   14   15 ar
    17   15   16 ar
    18   16   17 ar
    19   16   28 1
    20   17   18 ar
    21   17   19 1
    22   19   20 2
    23   19   21 1
    24   21   22 1
    25   22   27 1
    26   22   23 1
    27   23   24 1
    28   24   25 1
    29   25   26 1
    30   26   27 1
    31   28   29 1
    32    1   30 1
    33    1   31 1
    34    1   32 1
    35    4   33 1
    36    5   34 1
    37    6   35 1
    38    7   36 1
    39    9   37 1
    40   14   38 1
    41   15   39 1
    42   18   40 1
    43   21   41 1
    44   22   42 1
    45   23   43 1
    46   23   44 1
    47   24   45 1
    48   24   46 1
    49   25   47 1
    50   25   48 1
    51   26   49 1
    52   26   50 1
    53   27   51 1
    54   27   52 1
    55   29   53 1
    56   29   54 1
    57   29   55 1
@<TRIPOS>MOLECULE
ZINC00645918
 51 53 0 0 0
SMALL
NO_CHARGES


@<TRIPOS>ATOM
      1 C           1.716     3.909     0.877  C    
      2 C           1.796     3.535     2.231  C    
      3 C           1.559     4.488     3.239  C    
      4 C           1.237     5.820     2.900  C    
      5 C           1.157     6.187     1.540  C    
      6 C           1.398     5.235     0.533  C    
      7 S           0.923     6.985     4.158  S    
      8 O           0.478     8.402     3.587  O    
      9 O           2.330     7.233     4.861  O    
     10 N          -0.208     6.425     5.287  N    
     11 C           0.031     6.525     6.704  C    
     12 C           1.083     5.635     7.163  C    
     13 O           0.929     4.428     7.024  O    
     14 N           2.165     6.134     7.747  N    
     15 C           3.283     5.403     8.261  C    
     16 C           3.479     5.685     9.771  C    
     17 C           2.319     5.211    10.667  C    
     18 C           2.997     4.973    12.024  C    
     19 C           4.501     4.956    11.691  C    
     20 O           4.620     4.971    10.264  O    
     21 C          -1.410     5.989     4.806  C    
     22 C          -2.370     6.905     4.335  C    
     23 C          -3.591     6.446     3.818  C    
     24 C          -3.875     5.067     3.767  C    
     25 C          -2.926     4.117     4.245  C    
     26 C          -1.701     4.609     4.764  C    
     27 C          -3.196     2.646     4.203  C    
     28 F          -3.394     2.236     2.907  F    
     29 F          -2.192     1.850     4.705  F    
     30 F          -4.318     2.349     4.940  F    
     31 Cl         -5.380     4.627     3.113  Cl   
     32 H           1.889     3.219     0.143  H    
     33 H           2.027     2.571     2.483  H    
     34 H           1.617     4.203     4.220  H    
     35 H           0.924     7.145     1.272  H    
     36 H           1.339     5.508    -0.451  H    
     37 H           0.273     7.567     6.933  H    
     38 H          -0.872     6.285     7.276  H    
     39 H           2.207     7.100     7.831  H    
     40 H           3.191     4.325     8.102  H    
     41 H           4.172     5.739     7.724  H    
     42 H           3.642     6.761     9.912  H    
     43 H           1.528     5.964    10.733  H    
     44 H           1.896     4.274    10.294  H    
     45 H           2.767     5.783    12.723  H    
     46 H           2.675     4.023    12.460  H    
     47 H           4.997     5.838    12.106  H    
     48 H           4.986     4.062    12.088  H    
     49 H          -2.184     7.910     4.366  H    
     50 H          -4.273     7.130     3.477  H    
     51 H          -0.993     3.958     5.108  H    
@<TRIPOS>BOND
     1    1    6 ar
     2    1    2 ar
     3    2    3 ar
     4    3    4 ar
     5    4    5 ar
     6    4    7 1
     7    5    6 ar
     8    7    8 2
     9    7    9 2
    10    7   10 1
    11   10   11 1
    12   10   21 1
    13   11   12 1
    14   12   13 2
    15   12   14 1
    16   14   15 1
    17   15   16 1
    18   16   20 1
    19   16   17 1
    20   17   18 1
    21   18   19 1
    22   19   20 1
    23   21   26 ar
    24   21   22 ar
    25   22   23 ar
    26   23   24 ar
    27   24   25 ar
    28   24   31 1
    29   25   26 ar
    30   25   27 1
    31   27   28 1
    32   27   29 1
    33   27   30 1
    34    1   32 1
    35    2   33 1
    36    3   34 1
    37    5   35 1
    38    6   36 1
    39   11   37 1
    40   11   38 1
    41   14   39 1
    42   15   40 1
    43   15   41 1
    44   16   42 1
    45   17   43 1
    46   17   44 1
    47   18   45 1
    48   18   46 1
    49   19   47 1
    50   19   48 1
    51   22   49 1
    52   23   50 1
    53   26   51 1
@<TRIPOS>MOLECULE
ZINC00649675
 42 44 0 0 0
SMALL
NO_CHARGES


@<TRIPOS>ATOM
      1 C          -1.659     0.504     6.306  C    
      2 C          -2.040     1.460     5.290  C    
      3 O          -2.320     1.023     4.182  O    
      4 N          -1.997     2.759     5.561  N    
      5 C          -2.309     3.828     4.767  C    
      6 C          -3.243     3.802     3.704  C    
      7 C          -3.523     4.964     2.962  C    
      8 C          -2.886     6.194     3.260  C    
      9 C          -1.961     6.216     4.331  C    
     10 C          -1.686     5.055     5.077  C    
     11 C          -3.146     7.364     2.550  C    
     12 N          -4.035     7.418     1.575  N    
     13 C          -4.493     8.384     0.736  C    
     14 C          -3.976     9.702     0.789  C    
     15 C          -4.419    10.691    -0.104  C    
     16 C          -5.384    10.376    -1.068  C    
     17 C          -5.915     9.078    -1.129  C    
     18 C          -5.494     8.059    -0.233  C    
     19 C          -6.089     6.788    -0.318  C    
     20 O          -6.236     6.130     0.705  O    
     21 N          -6.518     6.310    -1.484  N    
     22 C          -7.123     5.128    -1.751  C    
     23 N          -7.514     4.796    -3.001  N    
     24 C          -8.110     3.583    -3.131  C    
     25 C          -8.231     2.852    -1.948  C    
     26 S          -7.542     3.818    -0.711  S    
     27 H          -2.477    -0.202     6.471  H    
     28 H          -1.430     0.990     7.259  H    
     29 H          -0.775    -0.049     5.980  H    
     30 H          -1.641     2.985     6.435  H    
     31 H          -3.752     2.948     3.479  H    
     32 H          -4.206     4.899     2.205  H    
     33 H          -1.479     7.083     4.588  H    
     34 H          -1.015     5.111     5.849  H    
     35 H          -2.652     8.190     2.791  H    
     36 H          -3.264     9.962     1.472  H    
     37 H          -4.036    11.637    -0.054  H    
     38 H          -5.710    11.096    -1.718  H    
     39 H          -6.641     8.898    -1.828  H    
     40 H          -6.376     6.881    -2.256  H    
     41 H          -8.445     3.235    -4.030  H    
     42 H          -8.646     1.926    -1.837  H    
@<TRIPOS>BOND
     1    1    2 1
     2    2    3 2
     3    2    4 1
     4    4    5 1
     5    5   10 ar
     6    5    6 ar
     7    6    7 ar
     8    7    8 ar
     9    8    9 ar
    10    8   11 1
    11    9   10 ar
    12   11   12 2
    13   12   13 1
    14   13   18 ar
    15   13   14 ar
    16   14   15 ar
    17   15   16 ar
    18   16   17 ar
    19   17   18 ar
    20   18   19 1
    21   19   20 2
    22   19   21 1
    23   21   22 1
    24   22   26 1
    25   22   23 2
    26   23   24 1
    27   24   25 2
    28   25   26 1
    29    1   27 1
    30    1   28 1
    31    1   29 1
    32    4   30 1
    33    6   31 1
    34    7   32 1
    35    9   33 1
    36   10   34 1
    37   11   35 1
    38   14   36 1
    39   15   37 1
    40   16   38 1
    41   17   39 1
    42   21   40 1
    43   24   41 1
    44   25   42 1
@<TRIPOS>MOLECULE
ZINC00652617
 45 46 0 0 0
SMALL
NO_CHARGES


@<TRIPOS>ATOM
      1 C          -2.739     8.252     3.009  C    
      2 O          -2.002     7.336     2.179  O    
      3 C          -0.692     7.698     2.024  C    
      4 C          -0.302     8.527     0.955  C    
      5 C           1.051     8.871     0.789  C    
      6 C           2.027     8.405     1.697  C    
      7 C           1.646     7.546     2.757  C    
      8 C           0.286     7.189     2.901  C    
      9 N           2.573     7.023     3.617  N    
     10 C           2.841     7.635     4.896  C    
     11 C           1.720     7.556     5.817  C    
     12 O           1.183     8.594     6.184  O    
     13 N           1.269     6.355     6.161  N    
     14 C           0.202     6.011     6.945  C    
     15 C          -0.246     6.785     8.045  C    
     16 C          -1.335     6.361     8.830  C    
     17 C          -1.988     5.152     8.531  C    
     18 C          -1.543     4.364     7.454  C    
     19 C          -0.451     4.783     6.669  C    
     20 Br          0.070     3.692     5.247  Br   
     21 S           3.464     5.672     3.119  S    
     22 O           3.328     4.514     4.201  O    
     23 O           2.840     5.052     1.791  O    
     24 C           5.202     6.013     2.794  C    
     25 O           3.349     8.709     1.499  O    
     26 C           3.709    10.055     1.857  C    
     27 H          -2.309     8.319     4.013  H    
     28 H          -3.760     7.881     3.101  H    
     29 H          -2.776     9.248     2.559  H    
     30 H          -1.002     8.876     0.295  H    
     31 H           1.325     9.465     0.002  H    
     32 H          -0.001     6.550     3.645  H    
     33 H           3.695     7.160     5.387  H    
     34 H           3.126     8.678     4.729  H    
     35 H           1.712     5.612     5.720  H    
     36 H           0.230     7.652     8.305  H    
     37 H          -1.648     6.928     9.622  H    
     38 H          -2.778     4.842     9.101  H    
     39 H          -2.018     3.483     7.244  H    
     40 H           5.290     6.748     1.994  H    
     41 H           5.705     5.092     2.496  H    
     42 H           5.671     6.404     3.696  H    
     43 H           3.207    10.784     1.218  H    
     44 H           4.784    10.167     1.718  H    
     45 H           3.476    10.270     2.902  H    
@<TRIPOS>BOND
     1    1    2 1
     2    2    3 1
     3    3    8 ar
     4    3    4 ar
     5    4    5 ar
     6    5    6 ar
     7    6    7 ar
     8    6   25 1
     9    7    8 ar
    10    7    9 1
    11    9   10 1
    12    9   21 1
    13   10   11 1
    14   11   12 2
    15   11   13 1
    16   13   14 1
    17   14   19 ar
    18   14   15 ar
    19   15   16 ar
    20   16   17 ar
    21   17   18 ar
    22   18   19 ar
    23   19   20 1
    24   21   22 2
    25   21   23 2
    26   21   24 1
    27   25   26 1
    28    1   27 1
    29    1   28 1
    30    1   29 1
    31    4   30 1
    32    5   31 1
    33    8   32 1
    34   10   33 1
    35   10   34 1
    36   13   35 1
    37   15   36 1
    38   16   37 1
    39   17   38 1
    40   18   39 1
    41   24   40 1
    42   24   41 1
    43   24   42 1
    44   26   43 1
    45   26   44 1
    46   26   45 1
@<TRIPOS>MOLECULE
ZINC00679104
 46 48 0 0 0
SMALL
NO_CHARGES


@<TRIPOS>ATOM
      1 C           4.992    -5.034    -1.849  C    
      2 C           6.058    -6.140    -1.660  C    
      3 O           6.047    -6.778    -0.366  O    
      4 C           4.921    -7.437     0.076  C    
      5 C           4.214    -8.370    -0.716  C    
      6 C           3.091    -9.063    -0.212  C    
      7 C           2.698    -8.831     1.126  C    
      8 C           3.414    -7.937     1.941  C    
      9 C           4.515    -7.225     1.413  C    
     10 O           5.249    -6.407     2.232  O    
     11 C           4.782    -5.045     2.287  C    
     12 C           5.512    -4.194     3.268  C    
     13 C           6.566    -4.719     4.061  C    
     14 C           7.235    -3.918     5.005  C    
     15 C           6.867    -2.575     5.173  C    
     16 C           5.831    -2.031     4.394  C    
     17 C           5.160    -2.825     3.439  C    
     18 Cl          3.932    -2.073     2.530  Cl   
     19 Br          2.906    -7.734     3.726  Br   
     20 C           2.362   -10.027    -1.074  C    
     21 N           3.176   -11.165    -1.351  N    
     22 C           2.785   -12.210    -2.109  C    
     23 N           1.613   -12.398    -2.725  N    
     24 N           1.696   -13.513    -3.303  N    
     25 N           2.801   -14.034    -3.097  N    
     26 N           3.522   -13.294    -2.369  N    
     27 C           3.183   -15.272    -3.615  C    
     28 H           3.985    -5.453    -1.758  H    
     29 H           5.093    -4.591    -2.836  H    
     30 H           5.123    -4.249    -1.096  H    
     31 H           5.961    -6.883    -2.456  H    
     32 H           7.042    -5.686    -1.772  H    
     33 H           4.527    -8.565    -1.666  H    
     34 H           1.908    -9.339     1.527  H    
     35 H           4.894    -4.592     1.300  H    
     36 H           3.724    -5.031     2.562  H    
     37 H           6.861    -5.695     3.966  H    
     38 H           7.986    -4.315     5.572  H    
     39 H           7.347    -1.998     5.864  H    
     40 H           5.574    -1.050     4.525  H    
     41 H           1.440   -10.358    -0.589  H    
     42 H           2.084    -9.528    -2.006  H    
     43 H           4.070   -11.191    -0.971  H    
     44 H           2.500   -16.049    -3.267  H    
     45 H           4.195   -15.541    -3.303  H    
     46 H           3.158   -15.239    -4.706  H    
@<TRIPOS>BOND
     1    1    2 1
     2    2    3 1
     3    3    4 1
     4    4    9 ar
     5    4    5 ar
     6    5    6 ar
     7    6    7 ar
     8    6   20 1
     9    7    8 ar
    10    8    9 ar
    11    8   19 1
    12    9   10 1
    13   10   11 1
    14   11   12 1
    15   12   17 ar
    16   12   13 ar
    17   13   14 ar
    18   14   15 ar
    19   15   16 ar
    20   16   17 ar
    21   17   18 1
    22   20   21 1
    23   21   22 1
    24   22   26 2
    25   22   23 1
    26   23   24 2
    27   24   25 1
    28   25   26 1
    29   25   27 1
    30    1   28 1
    31    1   29 1
    32    1   30 1
    33    2   31 1
    34    2   32 1
    35    5   33 1
    36    7   34 1
    37   11   35 1
    38   11   36 1
    39   13   37 1
    40   14   38 1
    41   15   39 1
    42   16   40 1
    43   20   41 1
    44   20   42 1
    45   21   43 1
    46   27   44 1
    47   27   45 1
    48   27   46 1
@<TRIPOS>MOLECULE
ZINC00716727
 34 35 0 0 0
SMALL
NO_CHARGES


@<TRIPOS>ATOM
      1 C           3.158   -11.103    -3.281  C    
      2 C           4.445   -11.653    -3.159  C    
      3 C           5.274   -11.252    -2.099  C    
      4 C           4.823   -10.303    -1.162  C    
      5 C           3.529    -9.735    -1.268  C    
      6 C           2.706   -10.154    -2.346  C    
      7 N           3.178    -8.819    -0.310  N    
      8 C           2.079    -8.101    -0.096  C    
      9 O           1.101    -8.167    -0.822  O    
     10 C           2.011    -7.252     0.963  C    
     11 N           2.979    -7.101     1.792  N    
     12 O           2.932    -6.309     2.790  O    
     13 C           3.949    -6.138     3.670  C    
     14 O           5.098    -6.836     3.508  O    
     15 N           3.727    -5.253     4.672  N    
     16 C           4.513    -4.842     5.712  C    
     17 C           5.829    -5.284     5.995  C    
     18 C           6.541    -4.789     7.102  C    
     19 C           5.955    -3.837     7.956  C    
     20 C           4.650    -3.385     7.690  C    
     21 C           3.941    -3.884     6.582  C    
     22 Cl          6.809    -3.243     9.286  Cl   
     23 Br          6.000    -9.839     0.209  Br   
     24 H           2.554   -11.395    -4.050  H    
     25 H           4.774   -12.338    -3.837  H    
     26 H           6.209   -11.656    -2.015  H    
     27 H           1.768    -9.783    -2.476  H    
     28 H           3.874    -8.661     0.347  H    
     29 H           1.179    -6.721     1.106  H    
     30 H           2.849    -4.838     4.642  H    
     31 H           6.294    -5.971     5.407  H    
     32 H           7.490    -5.126     7.283  H    
     33 H           4.209    -2.693     8.302  H    
     34 H           2.993    -3.537     6.414  H    
@<TRIPOS>BOND
     1    1    6 ar
     2    1    2 ar
     3    2    3 ar
     4    3    4 ar
     5    4    5 ar
     6    4   23 1
     7    5    6 ar
     8    5    7 1
     9    7    8 1
    10    8    9 2
    11    8   10 1
    12   10   11 2
    13   11   12 1
    14   12   13 1
    15   13   14 2
    16   13   15 1
    17   15   16 1
    18   16   21 ar
    19   16   17 ar
    20   17   18 ar
    21   18   19 ar
    22   19   20 ar
    23   19   22 1
    24   20   21 ar
    25    1   24 1
    26    2   25 1
    27    3   26 1
    28    6   27 1
    29    7   28 1
    30   10   29 1
    31   15   30 1
    32   17   31 1
    33   18   32 1
    34   20   33 1
    35   21   34 1
@<TRIPOS>MOLECULE
ZINC00731197
 39 40 0 0 0
SMALL
NO_CHARGES


@<TRIPOS>ATOM
      1 C          -4.372     5.390     5.057  C    
      2 O          -5.044     5.420     3.783  O    
      3 C          -4.189     5.588     2.727  C    
      4 C          -3.610     4.465     2.108  C    
      5 C          -2.742     4.625     1.011  C    
      6 C          -2.427     5.913     0.511  C    
      7 C          -3.058     7.029     1.114  C    
      8 C          -3.944     6.875     2.201  C    
      9 O          -4.491     7.986     2.784  O    
     10 C          -5.802     8.308     2.294  C    
     11 C          -1.571     6.118    -0.572  C    
     12 N          -0.566     5.408    -0.939  N    
     13 N          -0.050     4.417    -0.412  N    
     14 C           0.958     3.756    -0.894  C    
     15 S           1.487     3.986    -2.503  S    
     16 N           1.705     3.141     0.028  N    
     17 C           2.574     2.099    -0.048  C    
     18 C           2.754     1.250    -1.167  C    
     19 C           3.680     0.187    -1.125  C    
     20 C           4.436    -0.049     0.037  C    
     21 C           4.255     0.768     1.167  C    
     22 C           3.324     1.828     1.123  C    
     23 Cl          5.156     0.478     2.574  Cl   
     24 H          -3.675     4.549     5.120  H    
     25 H          -5.129     5.271     5.832  H    
     26 H          -3.832     6.325     5.248  H    
     27 H          -3.817     3.529     2.461  H    
     28 H          -2.364     3.785     0.571  H    
     29 H          -2.866     7.974     0.772  H    
     30 H          -5.788     8.504     1.221  H    
     31 H          -6.140     9.212     2.802  H    
     32 H          -6.515     7.508     2.510  H    
     33 H          -1.711     6.934    -1.116  H    
     34 H          -0.321     4.206     0.458  H    
     35 H           1.594     3.497     0.925  H    
     36 H           2.194     1.369    -2.012  H    
     37 H           3.796    -0.420    -1.940  H    
     38 H           5.108    -0.821     0.058  H    
     39 H           3.202     2.414     1.954  H    
@<TRIPOS>BOND
     1    1    2 1
     2    2    3 1
     3    3    8 ar
     4    3    4 ar
     5    4    5 ar
     6    5    6 ar
     7    6    7 ar
     8    6   11 1
     9    7    8 ar
    10    8    9 1
    11    9   10 1
    12   11   12 2
    13   12   13 1
    14   13   14 1
    15   14   15 2
    16   14   16 1
    17   16   17 1
    18   17   22 ar
    19   17   18 ar
    20   18   19 ar
    21   19   20 ar
    22   20   21 ar
    23   21   22 ar
    24   21   23 1
    25    1   24 1
    26    1   25 1
    27    1   26 1
    28    4   27 1
    29    5   28 1
    30    7   29 1
    31   10   30 1
    32   10   31 1
    33   10   32 1
    34   11   33 1
    35   13   34 1
    36   16   35 1
    37   18   36 1
    38   19   37 1
    39   20   38 1
    40   22   39 1
@<TRIPOS>MOLECULE
ZINC00737890
 50 52 0 0 0
SMALL
NO_CHARGES


@<TRIPOS>ATOM
      1 C           1.610     4.919    -1.283  C    
      2 C           1.406     4.110    -2.597  C    
      3 C          -0.073     4.262    -3.069  C    
      4 C           2.425     4.495    -3.731  C    
      5 C           3.916     4.292    -3.339  C    
      6 N           2.196     3.682    -4.895  N    
      7 C           1.970     4.094    -6.134  C    
      8 O           1.978     5.280    -6.428  O    
      9 C           1.724     3.155    -7.116  C    
     10 C           1.503     3.378    -8.474  C    
     11 C           1.281     2.147    -9.067  C    
     12 C           1.369     1.193    -8.060  C    
     13 O           1.642     1.822    -6.890  O    
     14 C           1.199    -0.259    -8.187  C    
     15 S          -0.222    -0.768    -7.189  S    
     16 C          -0.120    -2.465    -7.392  C    
     17 C          -1.194    -3.201    -7.719  C    
     18 C          -1.057    -4.533    -7.827  C    
     19 C           0.146    -5.100    -7.610  C    
     20 N           1.112    -4.304    -7.302  N    
     21 N           0.993    -3.080    -7.194  N    
     22 C           0.400    -6.476    -7.696  C    
     23 C           1.630    -6.948    -8.227  C    
     24 C           1.904    -8.324    -8.318  C    
     25 C           0.955    -9.261    -7.862  C    
     26 C          -0.266    -8.815    -7.320  C    
     27 C          -0.542    -7.437    -7.242  C    
     28 Cl          1.286   -10.917    -7.980  Cl   
     29 H           1.524     5.992    -1.473  H    
     30 H           2.588     4.720    -0.846  H    
     31 H           0.857     4.638    -0.542  H    
     32 H           1.558     3.050    -2.350  H    
     33 H          -0.763     3.971    -2.270  H    
     34 H          -0.280     3.624    -3.930  H    
     35 H          -0.281     5.300    -3.345  H    
     36 H           2.287     5.559    -3.960  H    
     37 H           4.215     4.985    -2.550  H    
     38 H           4.562     4.474    -4.205  H    
     39 H           4.085     3.267    -2.993  H    
     40 H           2.208     2.724    -4.752  H    
     41 H           1.495     4.281    -8.952  H    
     42 H           1.087     1.979   -10.053  H    
     43 H           1.030    -0.539    -9.229  H    
     44 H           2.109    -0.741    -7.830  H    
     45 H          -2.076    -2.769    -7.877  H    
     46 H          -1.846    -5.081    -8.077  H    
     47 H           2.335    -6.288    -8.572  H    
     48 H           2.795    -8.639    -8.712  H    
     49 H          -0.954    -9.490    -6.973  H    
     50 H          -1.430    -7.139    -6.824  H    
@<TRIPOS>BOND
     1    1    2 1
     2    2    3 1
     3    2    4 1
     4    4    5 1
     5    4    6 1
     6    6    7 1
     7    7    8 2
     8    7    9 1
     9    9   13 1
    10    9   10 2
    11   10   11 1
    12   11   12 2
    13   12   13 1
    14   12   14 1
    15   14   15 1
    16   15   16 1
    17   16   21 ar
    18   16   17 ar
    19   17   18 ar
    20   18   19 ar
    21   19   20 ar
    22   19   22 1
    23   20   21 ar
    24   22   27 ar
    25   22   23 ar
    26   23   24 ar
    27   24   25 ar
    28   25   26 ar
    29   25   28 1
    30   26   27 ar
    31    1   29 1
    32    1   30 1
    33    1   31 1
    34    2   32 1
    35    3   33 1
    36    3   34 1
    37    3   35 1
    38    4   36 1
    39    5   37 1
    40    5   38 1
    41    5   39 1
    42    6   40 1
    43   10   41 1
    44   11   42 1
    45   14   43 1
    46   14   44 1
    47   17   45 1
    48   18   46 1
    49   23   47 1
    50   24   48 1
    51   26   49 1
    52   27   50 1
@<TRIPOS>MOLECULE
ZINC00749716
 69 72 0 0 0
SMALL
NO_CHARGES


@<TRIPOS>ATOM
      1 C           4.449   -11.966    -1.655  C    
      2 C           4.961   -11.425    -0.294  C    
      3 C           6.519   -11.374    -0.245  C    
      4 C           7.023   -10.745     1.081  C    
      5 N           6.424    -9.431     1.279  N    
      6 C           4.967    -9.439     1.333  C    
      7 C           4.365   -10.022     0.027  C    
      8 C           7.171    -8.317     1.430  C    
      9 O           8.390    -8.392     1.543  O    
     10 C           6.679    -7.010     1.442  C    
     11 C           6.058    -6.551     0.253  C    
     12 C           5.636    -5.213     0.103  C    
     13 C           5.927    -4.308     1.137  C    
     14 C           6.565    -4.739     2.312  C    
     15 C           6.937    -6.094     2.509  C    
     16 N           7.498    -6.466     3.710  N    
     17 C           7.081    -7.662     4.424  C    
     18 C           6.566    -7.309     5.844  C    
     19 C           7.586    -6.444     6.626  C    
     20 C           8.032    -5.219     5.789  C    
     21 C           8.508    -5.663     4.381  C    
     22 N           5.027    -4.711    -1.017  N    
     23 C           4.241    -5.317    -1.904  C    
     24 O           3.869    -6.468    -1.713  O    
     25 C           3.743    -4.608    -3.005  C    
     26 C           2.414    -4.818    -3.476  C    
     27 C           1.937    -4.129    -4.608  C    
     28 C           2.751    -3.197    -5.271  C    
     29 C           4.056    -2.966    -4.816  C    
     30 C           4.561    -3.674    -3.707  C    
     31 O           5.862    -3.428    -3.345  O    
     32 C           6.808    -4.257    -4.044  C    
     33 O           1.562    -5.707    -2.866  O    
     34 C           0.720    -5.104    -1.867  C    
     35 H           3.358   -12.030    -1.648  H    
     36 H           4.848   -12.963    -1.843  H    
     37 H           4.755   -11.306    -2.473  H    
     38 H           4.622   -12.121     0.481  H    
     39 H           6.922   -12.386    -0.341  H    
     40 H           6.896   -10.778    -1.083  H    
     41 H           6.748   -11.395     1.917  H    
     42 H           8.116   -10.728     1.047  H    
     43 H           4.650   -10.059     2.177  H    
     44 H           4.526    -8.456     1.504  H    
     45 H           4.576    -9.335    -0.798  H    
     46 H           3.279   -10.100     0.134  H    
     47 H           5.956    -7.188    -0.540  H    
     48 H           5.658    -3.324     1.051  H    
     49 H           6.701    -4.050     3.056  H    
     50 H           6.267    -8.190     3.924  H    
     51 H           7.926    -8.354     4.502  H    
     52 H           5.626    -6.756     5.751  H    
     53 H           6.365    -8.228     6.404  H    
     54 H           7.136    -6.102     7.561  H    
     55 H           8.461    -7.052     6.877  H    
     56 H           7.194    -4.523     5.684  H    
     57 H           8.841    -4.700     6.308  H    
     58 H           9.417    -6.264     4.491  H    
     59 H           8.800    -4.780     3.809  H    
     60 H           5.137    -3.757    -1.150  H    
     61 H           0.986    -4.291    -4.942  H    
     62 H           2.394    -2.690    -6.085  H    
     63 H           4.648    -2.293    -5.309  H    
     64 H           6.601    -5.324    -3.893  H    
     65 H           7.805    -4.039    -3.653  H    
     66 H           6.799    -4.035    -5.118  H    
     67 H           1.307    -4.582    -1.104  H    
     68 H           0.152    -5.897    -1.376  H    
     69 H           0.014    -4.404    -2.323  H    
@<TRIPOS>BOND
     1    1    2 1
     2    2    7 1
     3    2    3 1
     4    3    4 1
     5    4    5 1
     6    5    6 1
     7    5    8 1
     8    6    7 1
     9    8    9 2
    10    8   10 1
    11   10   15 ar
    12   10   11 ar
    13   11   12 ar
    14   12   13 ar
    15   12   22 1
    16   13   14 ar
    17   14   15 ar
    18   15   16 1
    19   16   21 1
    20   16   17 1
    21   17   18 1
    22   18   19 1
    23   19   20 1
    24   20   21 1
    25   22   23 1
    26   23   24 2
    27   23   25 1
    28   25   30 ar
    29   25   26 ar
    30   26   27 ar
    31   26   33 1
    32   27   28 ar
    33   28   29 ar
    34   29   30 ar
    35   30   31 1
    36   31   32 1
    37   33   34 1
    38    1   35 1
    39    1   36 1
    40    1   37 1
    41    2   38 1
    42    3   39 1
    43    3   40 1
    44    4   41 1
    45    4   42 1
    46    6   43 1
    47    6   44 1
    48    7   45 1
    49    7   46 1
    50   11   47 1
    51   13   48 1
    52   14   49 1
    53   17   50 1
    54   17   51 1
    55   18   52 1
    56   18   53 1
    57   19   54 1
    58   19   55 1
    59   20   56 1
    60   20   57 1
    61   21   58 1
    62   21   59 1
    63   22   60 1
    64   27   61 1
    65   28   62 1
    66   29   63 1
    67   32   64 1
    68   32   65 1
    69   32   66 1
    70   34   67 1
    71   34   68 1
    72   34   69 1
@<TRIPOS>MOLECULE
ZINC00779063
 50 52 0 0 0
SMALL
NO_CHARGES


@<TRIPOS>ATOM
      1 C           5.448    -6.319    -1.660  C    
      2 C           3.944    -6.000    -1.469  C    
      3 N           3.690    -4.560    -1.404  N    
      4 C           3.508    -3.793    -2.576  C    
      5 C           3.656    -4.308    -3.896  C    
      6 C           3.465    -3.506    -5.034  C    
      7 C           3.129    -2.155    -4.889  C    
      8 C           2.991    -1.607    -3.604  C    
      9 C           3.176    -2.408    -2.446  C    
     10 C           3.060    -1.865    -1.158  C    
     11 C           3.306    -2.614    -0.057  C    
     12 C           3.639    -3.949    -0.194  C    
     13 O           3.904    -4.581     0.828  O    
     14 C           3.186    -2.050     1.179  C    
     15 O           4.204    -1.680     1.753  O    
     16 N           1.980    -1.899     1.708  N    
     17 C           1.682    -1.286     2.965  C    
     18 C           2.027     0.161     2.994  C    
     19 C           1.438     1.053     2.068  C    
     20 C           1.762     2.421     2.084  C    
     21 C           2.669     2.927     3.038  C    
     22 C           3.289     2.042     3.949  C    
     23 C           2.950     0.674     3.937  C    
     24 O           4.163     2.513     4.892  O    
     25 C           5.532     2.510     4.454  C    
     26 O           2.998     4.255     3.036  O    
     27 C           2.083     5.073     3.790  C    
     28 O           2.715    -0.579    -1.012  O    
     29 H           5.827    -5.870    -2.582  H    
     30 H           5.598    -7.400    -1.713  H    
     31 H           6.024    -5.929    -0.817  H    
     32 H           3.361    -6.468    -2.266  H    
     33 H           3.610    -6.518    -0.563  H    
     34 H           3.918    -5.279    -4.062  H    
     35 H           3.577    -3.906    -5.970  H    
     36 H           2.994    -1.569    -5.717  H    
     37 H           2.761    -0.614    -3.532  H    
     38 H           1.227    -2.231     1.194  H    
     39 H           0.610    -1.386     3.141  H    
     40 H           2.191    -1.841     3.756  H    
     41 H           0.770     0.709     1.372  H    
     42 H           1.333     3.051     1.401  H    
     43 H           3.386     0.050     4.619  H    
     44 H           5.864     1.506     4.176  H    
     45 H           6.152     2.852     5.283  H    
     46 H           5.678     3.190     3.611  H    
     47 H           1.080     5.050     3.353  H    
     48 H           2.443     6.100     3.761  H    
     49 H           2.033     4.758     4.835  H    
     50 H           1.979    -0.430    -1.642  H    
@<TRIPOS>BOND
     1    1    2 1
     2    2    3 1
     3    3   12 1
     4    3    4 1
     5    4    9 ar
     6    4    5 ar
     7    5    6 ar
     8    6    7 ar
     9    7    8 ar
    10    8    9 ar
    11    9   10 1
    12   10   11 2
    13   10   28 1
    14   11   12 1
    15   11   14 1
    16   12   13 2
    17   14   15 2
    18   14   16 1
    19   16   17 1
    20   17   18 1
    21   18   23 ar
    22   18   19 ar
    23   19   20 ar
    24   20   21 ar
    25   21   22 ar
    26   21   26 1
    27   22   23 ar
    28   22   24 1
    29   24   25 1
    30   26   27 1
    31    1   29 1
    32    1   30 1
    33    1   31 1
    34    2   32 1
    35    2   33 1
    36    5   34 1
    37    6   35 1
    38    7   36 1
    39    8   37 1
    40   16   38 1
    41   17   39 1
    42   17   40 1
    43   19   41 1
    44   20   42 1
    45   23   43 1
    46   25   44 1
    47   25   45 1
    48   25   46 1
    49   27   47 1
    50   27   48 1
    51   27   49 1
    52   28   50 1
@<TRIPOS>MOLECULE
ZINC00781980
 67 72 0 0 0
SMALL
NO_CHARGES


@<TRIPOS>ATOM
      1 C           2.799    -6.878    12.485  C    
      2 C           1.899    -5.818    11.976  C    
      3 C           1.883    -4.525    12.551  C    
      4 C           1.030    -3.525    12.048  C    
      5 C           0.184    -3.806    10.958  C    
      6 C           0.185    -5.095    10.368  C    
      7 C           1.043    -6.092    10.884  C    
      8 C          -0.669    -5.312     9.283  C    
      9 C          -1.468    -4.337     8.776  C    
     10 C          -1.442    -3.094     9.403  C    
     11 O          -2.162    -2.165     9.057  O    
     12 N          -0.651    -2.854    10.445  N    
     13 C          -2.369    -4.586     7.622  C    
     14 C          -3.721    -4.864     8.200  C    
     15 N          -4.717    -3.970     8.181  N    
     16 N          -5.699    -4.484     8.771  N    
     17 N          -5.420    -5.614     9.154  N    
     18 N          -4.237    -5.933     8.835  N    
     19 C          -3.644    -7.205     9.146  C    
     20 C          -4.493    -8.431     8.739  C    
     21 C          -3.909    -9.589     9.574  C    
     22 C          -3.267    -8.944    10.826  C    
     23 C          -3.417    -7.418    10.659  C    
     24 C          -2.895    -5.959     5.505  C    
     25 C          -3.094    -5.005     4.373  C    
     26 C          -3.776    -3.777     4.553  C    
     27 C          -3.932    -2.881     3.478  C    
     28 C          -3.428    -3.237     2.213  C    
     29 N          -2.801    -4.428     2.046  N    
     30 C          -2.625    -5.306     3.068  C    
     31 C          -0.513    -5.336     5.995  C    
     32 C          -0.222    -3.971     5.504  C    
     33 C           0.069    -3.593     4.190  C    
     34 C           0.301    -2.222     4.201  C    
     35 C           0.171    -1.808     5.524  C    
     36 O          -0.130    -2.874     6.306  O    
     37 N          -1.892    -5.578     6.574  N    
     38 H           2.211    -7.733    12.825  H    
     39 H           3.411    -6.531    13.319  H    
     40 H           3.465    -7.204    11.684  H    
     41 H           2.501    -4.297    13.332  H    
     42 H           1.029    -2.595    12.471  H    
     43 H           1.056    -7.020    10.451  H    
     44 H          -0.682    -6.218     8.881  H    
     45 H          -0.671    -1.974    10.856  H    
     46 H          -2.465    -3.646     7.074  H    
     47 H          -2.684    -7.298     8.637  H    
     48 H          -5.547    -8.282     9.003  H    
     49 H          -4.418    -8.623     7.665  H    
     50 H          -4.694   -10.299     9.848  H    
     51 H          -3.146   -10.117     8.993  H    
     52 H          -3.768    -9.279    11.738  H    
     53 H          -2.207    -9.213    10.888  H    
     54 H          -2.528    -6.882    11.006  H    
     55 H          -4.287    -7.068    11.227  H    
     56 H          -3.872    -6.164     5.946  H    
     57 H          -2.566    -6.926     5.108  H    
     58 H          -4.170    -3.532     5.463  H    
     59 H          -4.413    -1.984     3.612  H    
     60 H          -3.533    -2.602     1.416  H    
     61 H          -2.131    -6.180     2.881  H    
     62 H          -0.322    -6.050     5.183  H    
     63 H           0.238    -5.558     6.756  H    
     64 H           0.100    -4.200     3.363  H    
     65 H           0.524    -1.635     3.391  H    
     66 H           0.284    -0.847     5.855  H    
     67 H          -1.773    -6.446     7.091  H    
@<TRIPOS>BOND
     1    1    2 1
     2    2    7 ar
     3    2    3 ar
     4    3    4 ar
     5    4    5 ar
     6    5   12 1
     7    5    6 ar
     8    6    7 ar
     9    6    8 1
    10    8    9 2
    11    9   10 1
    12    9   13 1
    13   10   11 2
    14   10   12 1
    15   13   14 1
    16   13   37 1
    17   14   18 1
    18   14   15 2
    19   15   16 1
    20   16   17 2
    21   17   18 1
    22   18   19 1
    23   19   23 1
    24   19   20 1
    25   20   21 1
    26   21   22 1
    27   22   23 1
    28   24   25 1
    29   24   37 1
    30   25   30 ar
    31   25   26 ar
    32   26   27 ar
    33   27   28 ar
    34   28   29 ar
    35   29   30 ar
    36   31   32 1
    37   31   37 1
    38   32   36 1
    39   32   33 2
    40   33   34 1
    41   34   35 2
    42   35   36 1
    43    1   38 1
    44    1   39 1
    45    1   40 1
    46    3   41 1
    47    4   42 1
    48    7   43 1
    49    8   44 1
    50   12   45 1
    51   13   46 1
    52   19   47 1
    53   20   48 1
    54   20   49 1
    55   21   50 1
    56   21   51 1
    57   22   52 1
    58   22   53 1
    59   23   54 1
    60   23   55 1
    61   24   56 1
    62   24   57 1
    63   26   58 1
    64   27   59 1
    65   28   60 1
    66   30   61 1
    67   31   62 1
    68   31   63 1
    69   33   64 1
    70   34   65 1
    71   35   66 1
    72   37   67 1
@<TRIPOS>MOLECULE
ZINC00784464
 47 50 0 0 0
SMALL
NO_CHARGES


@<TRIPOS>ATOM
      1 C         -11.103    11.060     2.025  C    
      2 C         -10.353    10.076     1.363  C    
      3 C          -9.626     9.127     2.103  C    
      4 C          -9.632     9.155     3.518  C    
      5 C         -10.398    10.156     4.185  C    
      6 C         -11.123    11.105     3.430  C    
      7 C         -10.426    10.190     5.600  C    
      8 C          -9.725     9.228     6.344  C    
      9 C          -8.980     8.236     5.689  C    
     10 C          -8.905     8.204     4.279  C    
     11 O          -8.174     7.220     3.659  O    
     12 C          -6.748     7.399     3.750  C    
     13 C          -6.098     6.489     2.826  C    
     14 O          -6.190     6.745     1.627  O    
     15 N          -5.339     5.507     3.301  N    
     16 C          -4.561     4.580     2.659  C    
     17 C          -4.649     4.228     1.291  C    
     18 C          -3.784     3.267     0.737  C    
     19 C          -2.818     2.627     1.540  C    
     20 C          -2.732     2.958     2.905  C    
     21 C          -3.600     3.916     3.456  C    
     22 S          -1.716     1.463     0.857  S    
     23 O          -1.514     0.290     1.912  O    
     24 O          -2.308     0.889    -0.504  O    
     25 N          -0.239     2.223     0.580  N    
     26 C           0.831     1.621     0.024  C    
     27 N           2.003     2.263    -0.174  N    
     28 C           2.986     1.515    -0.740  C    
     29 C           2.640     0.197    -1.034  C    
     30 S           1.008     0.003    -0.544  S    
     31 H         -11.630    11.750     1.486  H    
     32 H         -10.346    10.042     0.343  H    
     33 H          -9.093     8.415     1.595  H    
     34 H         -11.675    11.834     3.895  H    
     35 H         -10.964    10.903     6.094  H    
     36 H          -9.761     9.249     7.368  H    
     37 H          -8.480     7.540     6.245  H    
     38 H          -6.455     8.425     3.496  H    
     39 H          -6.418     7.201     4.774  H    
     40 H          -5.285     5.472     4.273  H    
     41 H          -5.351     4.648     0.684  H    
     42 H          -3.860     3.044    -0.256  H    
     43 H          -2.034     2.512     3.506  H    
     44 H          -3.518     4.137     4.452  H    
     45 H          -0.152     3.155     0.833  H    
     46 H           3.913     1.894    -0.935  H    
     47 H           3.236    -0.512    -1.456  H    
@<TRIPOS>BOND
     1    1    6 ar
     2    1    2 ar
     3    2    3 ar
     4    3    4 ar
     5    4   10 ar
     6    4    5 ar
     7    5    6 ar
     8    5    7 ar
     9    7    8 ar
    10    8    9 ar
    11    9   10 ar
    12   10   11 1
    13   11   12 1
    14   12   13 1
    15   13   14 2
    16   13   15 1
    17   15   16 1
    18   16   21 ar
    19   16   17 ar
    20   17   18 ar
    21   18   19 ar
    22   19   20 ar
    23   19   22 1
    24   20   21 ar
    25   22   23 2
    26   22   24 2
    27   22   25 1
    28   25   26 1
    29   26   30 1
    30   26   27 2
    31   27   28 1
    32   28   29 2
    33   29   30 1
    34    1   31 1
    35    2   32 1
    36    3   33 1
    37    6   34 1
    38    7   35 1
    39    8   36 1
    40    9   37 1
    41   12   38 1
    42   12   39 1
    43   15   40 1
    44   17   41 1
    45   18   42 1
    46   20   43 1
    47   21   44 1
    48   25   45 1
    49   28   46 1
    50   29   47 1
@<TRIPOS>MOLECULE
ZINC00806961
 59 61 0 0 0
SMALL
NO_CHARGES


@<TRIPOS>ATOM
      1 C          -9.503     6.503     4.110  C    
      2 C          -8.746     6.968     2.831  C    
      3 C          -9.295     8.333     2.334  C    
      4 C          -7.283     7.023     2.998  C    
      5 O          -6.905     7.463     4.080  O    
      6 N          -6.354     6.709     2.069  N    
      7 C          -6.641     6.457     0.663  C    
      8 C          -6.147     5.041     0.274  C    
      9 N          -4.747     4.878     0.622  N    
     10 C          -4.408     5.174     2.005  C    
     11 C          -4.936     6.581     2.401  C    
     12 C          -3.780     4.590    -0.311  C    
     13 C          -3.774     5.280    -1.551  C    
     14 C          -2.758     5.081    -2.503  C    
     15 C          -1.714     4.165    -2.258  C    
     16 C          -1.744     3.424    -1.061  C    
     17 C          -2.747     3.635    -0.091  C    
     18 Cl         -2.730     2.580     1.243  Cl   
     19 N          -0.699     3.899    -3.136  N    
     20 C          -0.086     4.710    -3.994  C    
     21 O          -0.351     5.904    -3.999  O    
     22 C           0.955     4.231    -4.803  C    
     23 C           2.100     5.036    -5.081  C    
     24 C           3.132     4.549    -5.910  C    
     25 C           3.071     3.253    -6.438  C    
     26 C           1.965     2.438    -6.158  C    
     27 C           0.899     2.923    -5.371  C    
     28 O          -0.171     2.089    -5.163  O    
     29 C          -1.162     2.142    -6.209  C    
     30 O           2.246     6.301    -4.565  O    
     31 C           2.965     6.333    -3.320  C    
     32 H          -9.408     7.234     4.918  H    
     33 H          -9.102     5.548     4.455  H    
     34 H         -10.566     6.369     3.897  H    
     35 H          -9.000     6.210     2.087  H    
     36 H         -10.369     8.261     2.151  H    
     37 H          -8.814     8.633     1.401  H    
     38 H          -9.118     9.114     3.079  H    
     39 H          -7.688     6.547     0.379  H    
     40 H          -6.109     7.196     0.059  H    
     41 H          -6.728     4.298     0.829  H    
     42 H          -6.351     4.861    -0.786  H    
     43 H          -4.861     4.421     2.658  H    
     44 H          -3.329     5.170     2.185  H    
     45 H          -4.369     7.342     1.855  H    
     46 H          -4.714     6.729     3.462  H    
     47 H          -4.484     5.986    -1.755  H    
     48 H          -2.799     5.597    -3.383  H    
     49 H          -1.020     2.721    -0.890  H    
     50 H          -0.324     3.007    -3.066  H    
     51 H           3.943     5.137    -6.120  H    
     52 H           3.833     2.903    -7.025  H    
     53 H           1.934     1.493    -6.543  H    
     54 H          -1.513     3.163    -6.391  H    
     55 H          -2.018     1.543    -5.895  H    
     56 H          -0.769     1.720    -7.140  H    
     57 H           2.511     5.673    -2.576  H    
     58 H           2.937     7.349    -2.930  H    
     59 H           4.009     6.052    -3.467  H    
@<TRIPOS>BOND
     1    1    2 1
     2    2    3 1
     3    2    4 1
     4    4    5 2
     5    4    6 1
     6    6   11 1
     7    6    7 1
     8    7    8 1
     9    8    9 1
    10    9   10 1
    11    9   12 1
    12   10   11 1
    13   12   17 ar
    14   12   13 ar
    15   13   14 ar
    16   14   15 ar
    17   15   16 ar
    18   15   19 1
    19   16   17 ar
    20   17   18 1
    21   19   20 1
    22   20   21 2
    23   20   22 1
    24   22   27 ar
    25   22   23 ar
    26   23   24 ar
    27   23   30 1
    28   24   25 ar
    29   25   26 ar
    30   26   27 ar
    31   27   28 1
    32   28   29 1
    33   30   31 1
    34    1   32 1
    35    1   33 1
    36    1   34 1
    37    2   35 1
    38    3   36 1
    39    3   37 1
    40    3   38 1
    41    7   39 1
    42    7   40 1
    43    8   41 1
    44    8   42 1
    45   10   43 1
    46   10   44 1
    47   11   45 1
    48   11   46 1
    49   13   47 1
    50   14   48 1
    51   16   49 1
    52   19   50 1
    53   24   51 1
    54   25   52 1
    55   26   53 1
    56   29   54 1
    57   29   55 1
    58   29   56 1
    59   31   57 1
    60   31   58 1
    61   31   59 1
@<TRIPOS>MOLECULE
ZINC00819234
 68 71 0 0 0
SMALL
NO_CHARGES


@<TRIPOS>ATOM
      1 C           0.217   -11.906    -2.565  C    
      2 C           0.590   -12.857    -1.418  C    
      3 O           0.901   -12.081    -0.247  O    
      4 C           1.607   -12.678     0.775  C    
      5 C           1.180   -13.915     1.315  C    
      6 C           1.785   -14.444     2.467  C    
      7 C           2.805   -13.728     3.106  C    
      8 C           3.223   -12.491     2.593  C    
      9 C           2.644   -11.938     1.419  C    
     10 N           3.076   -10.723     0.947  N    
     11 C           3.323   -10.482    -0.464  C    
     12 C           4.754    -9.914    -0.684  C    
     13 N           4.990    -8.770     0.193  N    
     14 C           4.802    -9.087     1.603  C    
     15 C           3.359    -9.603     1.826  C    
     16 C           5.302    -7.545    -0.286  C    
     17 O           5.548    -7.420    -1.483  O    
     18 C           5.431    -6.309     0.509  C    
     19 C           6.830    -6.216     1.186  C    
     20 C           6.946    -4.944     2.065  C    
     21 C           5.314    -3.738     0.642  C    
     22 C           5.156    -4.982    -0.272  C    
     23 C           6.891    -2.464     2.115  C    
     24 C           6.985    -1.235     1.288  C    
     25 C           8.062    -1.072     0.390  C    
     26 C           8.170     0.082    -0.405  C    
     27 C           7.198     1.109    -0.325  C    
     28 C           6.126     0.944     0.576  C    
     29 C           6.022    -0.206     1.375  C    
     30 O           7.197     2.292    -1.035  O    
     31 C           8.111     2.508    -2.119  C    
     32 N           6.665    -3.694     1.291  N    
     33 H          -0.619   -11.268    -2.269  H    
     34 H          -0.075   -12.482    -3.450  H    
     35 H           1.074   -11.277    -2.823  H    
     36 H          -0.262   -13.509    -1.217  H    
     37 H           1.440   -13.471    -1.730  H    
     38 H           0.407   -14.429     0.892  H    
     39 H           1.473   -15.346     2.844  H    
     40 H           3.248   -14.112     3.946  H    
     41 H           3.995   -12.016     3.063  H    
     42 H           3.245   -11.392    -1.064  H    
     43 H           2.591    -9.763    -0.843  H    
     44 H           5.488   -10.690    -0.455  H    
     45 H           4.870    -9.693    -1.747  H    
     46 H           5.514    -9.866     1.890  H    
     47 H           4.974    -8.258     2.289  H    
     48 H           2.663    -8.795     1.600  H    
     49 H           3.221    -9.831     2.886  H    
     50 H           4.662    -6.328     1.285  H    
     51 H           7.015    -7.090     1.811  H    
     52 H           7.607    -6.189     0.415  H    
     53 H           6.261    -5.033     2.912  H    
     54 H           7.962    -4.913     2.464  H    
     55 H           5.167    -2.852     0.021  H    
     56 H           4.524    -3.742     1.400  H    
     57 H           5.851    -4.880    -1.112  H    
     58 H           4.140    -4.998    -0.679  H    
     59 H           7.836    -2.543     2.663  H    
     60 H           6.101    -2.371     2.868  H    
     61 H           8.782    -1.793     0.305  H    
     62 H           8.968     0.164    -1.035  H    
     63 H           5.411     1.671     0.655  H    
     64 H           5.229    -0.296     2.015  H    
     65 H           9.146     2.543    -1.760  H    
     66 H           7.879     3.479    -2.569  H    
     67 H           8.003     1.736    -2.889  H    
     68 H           7.350    -3.668     0.531  H    
@<TRIPOS>BOND
     1    1    2 1
     2    2    3 1
     3    3    4 1
     4    4    9 ar
     5    4    5 ar
     6    5    6 ar
     7    6    7 ar
     8    7    8 ar
     9    8    9 ar
    10    9   10 1
    11   10   15 1
    12   10   11 1
    13   11   12 1
    14   12   13 1
    15   13   14 1
    16   13   16 1
    17   14   15 1
    18   16   17 2
    19   16   18 1
    20   18   22 1
    21   18   19 1
    22   19   20 1
    23   20   32 1
    24   21   22 1
    25   21   32 1
    26   23   24 1
    27   23   32 1
    28   24   29 ar
    29   24   25 ar
    30   25   26 ar
    31   26   27 ar
    32   27   28 ar
    33   27   30 1
    34   28   29 ar
    35   30   31 1
    36    1   33 1
    37    1   34 1
    38    1   35 1
    39    2   36 1
    40    2   37 1
    41    5   38 1
    42    6   39 1
    43    7   40 1
    44    8   41 1
    45   11   42 1
    46   11   43 1
    47   12   44 1
    48   12   45 1
    49   14   46 1
    50   14   47 1
    51   15   48 1
    52   15   49 1
    53   18   50 1
    54   19   51 1
    55   19   52 1
    56   20   53 1
    57   20   54 1
    58   21   55 1
    59   21   56 1
    60   22   57 1
    61   22   58 1
    62   23   59 1
    63   23   60 1
    64   25   61 1
    65   26   62 1
    66   28   63 1
    67   29   64 1
    68   31   65 1
    69   31   66 1
    70   31   67 1
    71   32   68 1
@<TRIPOS>MOLECULE
ZINC00821342
 47 48 0 0 0
SMALL
NO_CHARGES


@<TRIPOS>ATOM
      1 C          -4.399     1.050     3.761  C    
      2 C          -4.015     2.399     3.286  C    
      3 C          -3.253     2.584     2.107  C    
      4 C          -2.904     3.878     1.678  C    
      5 C          -3.311     5.010     2.416  C    
      6 C          -4.075     4.829     3.587  C    
      7 C          -4.421     3.537     4.018  C    
      8 S          -2.910     6.618     1.880  S    
      9 O          -2.622     7.573     3.120  O    
     10 O          -1.520     6.527     1.110  O    
     11 N          -4.102     7.292     0.883  N    
     12 C          -3.741     7.988    -0.326  C    
     13 C          -3.289     7.116    -1.427  C    
     14 O          -3.310     5.765    -1.323  O    
     15 O          -2.852     7.707    -2.569  O    
     16 C          -2.386     7.037    -3.743  C    
     17 C          -5.383     7.348     1.355  C    
     18 C          -5.716     8.277     2.368  C    
     19 C          -7.034     8.375     2.838  C    
     20 C          -8.051     7.562     2.300  C    
     21 C          -7.730     6.660     1.259  C    
     22 C          -6.398     6.523     0.805  C    
     23 O          -6.076     5.655    -0.215  O    
     24 C          -6.255     4.261     0.086  C    
     25 O          -9.335     7.723     2.746  O    
     26 C          -9.837     6.620     3.521  C    
     27 H          -3.988     0.882     4.758  H    
     28 H          -4.027     0.262     3.104  H    
     29 H          -5.484     0.970     3.810  H    
     30 H          -2.952     1.775     1.549  H    
     31 H          -2.363     3.987     0.818  H    
     32 H          -4.394     5.635     4.132  H    
     33 H          -4.981     3.430     4.869  H    
     34 H          -4.582     8.571    -0.710  H    
     35 H          -2.946     8.698    -0.096  H    
     36 H          -1.515     6.429    -3.501  H    
     37 H          -2.113     7.785    -4.488  H    
     38 H          -3.168     6.395    -4.150  H    
     39 H          -4.998     8.895     2.763  H    
     40 H          -7.257     9.059     3.569  H    
     41 H          -8.470     6.099     0.833  H    
     42 H          -5.845     3.993     1.059  H    
     43 H          -5.734     3.670    -0.672  H    
     44 H          -7.310     3.997     0.056  H    
     45 H         -10.009     5.745     2.889  H    
     46 H         -10.797     6.911     3.954  H    
     47 H          -9.163     6.353     4.340  H    
@<TRIPOS>BOND
     1    1    2 1
     2    2    7 ar
     3    2    3 ar
     4    3    4 ar
     5    4    5 ar
     6    5    6 ar
     7    5    8 1
     8    6    7 ar
     9    8    9 2
    10    8   10 2
    11    8   11 1
    12   11   12 1
    13   11   17 1
    14   12   13 1
    15   13   14 2
    16   13   15 1
    17   15   16 1
    18   17   22 ar
    19   17   18 ar
    20   18   19 ar
    21   19   20 ar
    22   20   21 ar
    23   20   25 1
    24   21   22 ar
    25   22   23 1
    26   23   24 1
    27   25   26 1
    28    1   27 1
    29    1   28 1
    30    1   29 1
    31    3   30 1
    32    4   31 1
    33    6   32 1
    34    7   33 1
    35   12   34 1
    36   12   35 1
    37   16   36 1
    38   16   37 1
    39   16   38 1
    40   18   39 1
    41   19   40 1
    42   21   41 1
    43   24   42 1
    44   24   43 1
    45   24   44 1
    46   26   45 1
    47   26   46 1
    48   26   47 1
@<TRIPOS>MOLECULE
ZINC00851242
 42 44 0 0 0
SMALL
NO_CHARGES


@<TRIPOS>ATOM
      1 C          -0.384     6.836    -2.567  C    
      2 O          -1.374     6.668    -1.539  O    
      3 C          -0.846     6.672    -0.277  C    
      4 C          -0.419     5.470     0.321  C    
      5 C           0.077     5.468     1.637  C    
      6 C           0.154     6.670     2.384  C    
      7 C          -0.313     7.862     1.787  C    
      8 C          -0.806     7.866     0.469  C    
      9 N           0.581     6.757     3.680  N    
     10 C           1.406     5.967     4.355  C    
     11 O           2.022     5.042     3.844  O    
     12 C           1.646     6.244     5.655  C    
     13 C           1.177     5.467     6.661  C    
     14 C           0.235     4.441     6.611  C    
     15 C          -0.057     3.575     7.679  C    
     16 C          -1.066     2.627     7.430  C    
     17 C          -1.631     2.706     6.157  C    
     18 S          -0.839     3.988     5.336  S    
     19 N           2.491     7.277     5.827  N    
     20 C           2.678     8.097     6.861  C    
     21 O           1.987     8.034     7.870  O    
     22 C           3.621     9.108     6.772  C    
     23 C           3.938    10.072     7.746  C    
     24 C           4.943    10.985     7.383  C    
     25 C           5.466    10.786     6.105  C    
     26 S           4.650     9.436     5.426  S    
     27 H           0.142     7.783    -2.463  H    
     28 H          -0.892     6.833    -3.532  H    
     29 H           0.339     6.017    -2.559  H    
     30 H          -0.481     4.591    -0.199  H    
     31 H           0.347     4.575     2.051  H    
     32 H          -0.293     8.741     2.308  H    
     33 H          -1.140     8.738     0.054  H    
     34 H           0.256     7.529     4.170  H    
     35 H           1.565     5.625     7.560  H    
     36 H           0.428     3.620     8.578  H    
     37 H          -1.365     1.942     8.125  H    
     38 H          -2.375     2.118     5.781  H    
     39 H           3.007     7.504     5.037  H    
     40 H           3.478    10.114     8.659  H    
     41 H           5.266    11.732     8.002  H    
     42 H           6.199    11.335     5.654  H    
@<TRIPOS>BOND
     1    1    2 1
     2    2    3 1
     3    3    8 ar
     4    3    4 ar
     5    4    5 ar
     6    5    6 ar
     7    6    7 ar
     8    6    9 1
     9    7    8 ar
    10    9   10 1
    11   10   11 2
    12   10   12 1
    13   12   13 2
    14   12   19 1
    15   13   14 1
    16   14   18 1
    17   14   15 2
    18   15   16 1
    19   16   17 2
    20   17   18 1
    21   19   20 1
    22   20   21 2
    23   20   22 1
    24   22   26 1
    25   22   23 2
    26   23   24 1
    27   24   25 2
    28   25   26 1
    29    1   27 1
    30    1   28 1
    31    1   29 1
    32    4   30 1
    33    5   31 1
    34    7   32 1
    35    8   33 1
    36    9   34 1
    37   13   35 1
    38   15   36 1
    39   16   37 1
    40   17   38 1
    41   19   39 1
    42   23   40 1
    43   24   41 1
    44   25   42 1
@<TRIPOS>MOLECULE
ZINC00857462
 45 47 0 0 0
SMALL
NO_CHARGES


@<TRIPOS>ATOM
      1 C           5.158     7.642    12.175  C    
      2 C           4.135     8.756    11.863  C    
      3 C           3.122     8.347    10.756  C    
      4 C           2.137     9.394    10.398  C    
      5 N           2.125    10.625    10.956  N    
      6 C           1.131    11.314    10.386  C    
      7 C           0.699    12.633    10.606  C    
      8 C          -0.391    13.120     9.859  C    
      9 C          -1.032    12.288     8.913  C    
     10 C          -0.581    10.968     8.698  C    
     11 C           0.515    10.489     9.446  C    
     12 N           1.157     9.300     9.459  N    
     13 C           0.836     8.168     8.624  C    
     14 C           1.357     8.342     7.171  C    
     15 C           0.864     7.222     6.227  C    
     16 O           1.522     7.329     4.947  O    
     17 C           1.074     6.571     3.885  C    
     18 C           0.435     5.308     3.994  C    
     19 C           0.026     4.610     2.841  C    
     20 C           0.255     5.157     1.564  C    
     21 C           0.911     6.396     1.442  C    
     22 C           1.322     7.093     2.594  C    
     23 O           2.785     8.350     7.171  O    
     24 H           4.645     6.731    12.500  H    
     25 H           5.823     7.975    12.977  H    
     26 H           5.758     7.419    11.290  H    
     27 H           3.586     8.995    12.779  H    
     28 H           4.680     9.648    11.544  H    
     29 H           3.677     8.085     9.853  H    
     30 H           2.575     7.466    11.094  H    
     31 H           1.163    13.224    11.298  H    
     32 H          -0.718    14.078     9.999  H    
     33 H          -1.826    12.645     8.377  H    
     34 H          -1.043    10.370     8.012  H    
     35 H           1.264     7.248     9.034  H    
     36 H          -0.250     8.026     8.612  H    
     37 H           1.019     9.301     6.769  H    
     38 H           1.086     6.248     6.669  H    
     39 H          -0.222     7.306     6.110  H    
     40 H           0.263     4.891     4.913  H    
     41 H          -0.441     3.703     2.934  H    
     42 H          -0.042     4.647     0.731  H    
     43 H           1.079     6.786     0.515  H    
     44 H           1.805     7.990     2.488  H    
     45 H           3.039     9.122     7.720  H    
@<TRIPOS>BOND
     1    1    2 1
     2    2    3 1
     3    3    4 1
     4    4   12 1
     5    4    5 2
     6    5    6 1
     7    6   11 ar
     8    6    7 ar
     9    7    8 ar
    10    8    9 ar
    11    9   10 ar
    12   10   11 ar
    13   11   12 1
    14   12   13 1
    15   13   14 1
    16   14   15 1
    17   14   23 1
    18   15   16 1
    19   16   17 1
    20   17   22 ar
    21   17   18 ar
    22   18   19 ar
    23   19   20 ar
    24   20   21 ar
    25   21   22 ar
    26    1   24 1
    27    1   25 1
    28    1   26 1
    29    2   27 1
    30    2   28 1
    31    3   29 1
    32    3   30 1
    33    7   31 1
    34    8   32 1
    35    9   33 1
    36   10   34 1
    37   13   35 1
    38   13   36 1
    39   14   37 1
    40   15   38 1
    41   15   39 1
    42   18   40 1
    43   19   41 1
    44   20   42 1
    45   21   43 1
    46   22   44 1
    47   23   45 1
@<TRIPOS>MOLECULE
ZINC00871713
 53 55 0 0 0
SMALL
NO_CHARGES


@<TRIPOS>ATOM
      1 C           7.996   -12.320    -0.941  C    
      2 C           7.048   -11.378    -0.303  C    
      3 C           7.496   -10.326     0.523  C    
      4 C           6.578    -9.438     1.117  C    
      5 C           5.194    -9.597     0.898  C    
      6 C           4.740   -10.640     0.066  C    
      7 C           5.659   -11.525    -0.527  C    
      8 S           4.075    -8.459     1.599  S    
      9 O           4.566    -8.103     3.070  O    
     10 O           2.599    -9.047     1.602  O    
     11 N           4.148    -7.071     0.648  N    
     12 C           3.440    -5.862     0.929  C    
     13 C           4.476    -4.700     1.051  C    
     14 C           5.330    -4.816     2.265  C    
     15 C           6.687    -5.215     2.180  C    
     16 C           7.475    -5.340     3.340  C    
     17 C           6.917    -5.067     4.602  C    
     18 C           5.573    -4.668     4.706  C    
     19 C           4.786    -4.546     3.545  C    
     20 C           2.433    -5.699    -0.112  C    
     21 O           2.536    -4.821    -0.962  O    
     22 N           1.413    -6.543    -0.131  N    
     23 C           0.371    -6.609    -1.115  C    
     24 C           0.806    -7.415    -2.358  C    
     25 C           0.584    -8.897    -1.986  C    
     26 C          -0.475    -8.906    -0.861  C    
     27 C          -0.820    -7.429    -0.579  C    
     28 H           7.780   -13.339    -0.614  H    
     29 H           9.033   -12.092    -0.686  H    
     30 H           7.892   -12.267    -2.026  H    
     31 H           8.496   -10.191     0.697  H    
     32 H           6.927    -8.674     1.699  H    
     33 H           3.742   -10.758    -0.124  H    
     34 H           5.312   -12.277    -1.128  H    
     35 H           4.666    -7.115    -0.174  H    
     36 H           2.913    -5.940     1.884  H    
     37 H           5.097    -4.676     0.150  H    
     38 H           3.953    -3.740     1.096  H    
     39 H           7.106    -5.426     1.271  H    
     40 H           8.453    -5.629     3.266  H    
     41 H           7.489    -5.155     5.444  H    
     42 H           5.167    -4.467     5.623  H    
     43 H           3.810    -4.256     3.638  H    
     44 H           1.381    -7.204     0.579  H    
     45 H           0.036    -5.603    -1.387  H    
     46 H           0.169    -7.149    -3.209  H    
     47 H           1.847    -7.223    -2.635  H    
     48 H           0.246    -9.465    -2.857  H    
     49 H           1.518    -9.336    -1.626  H    
     50 H          -1.370    -9.456    -1.162  H    
     51 H          -0.065    -9.375     0.038  H    
     52 H          -0.994    -7.251     0.487  H    
     53 H          -1.729    -7.154    -1.125  H    
@<TRIPOS>BOND
     1    1    2 1
     2    2    7 ar
     3    2    3 ar
     4    3    4 ar
     5    4    5 ar
     6    5    6 ar
     7    5    8 1
     8    6    7 ar
     9    8    9 2
    10    8   10 2
    11    8   11 1
    12   11   12 1
    13   12   13 1
    14   12   20 1
    15   13   14 1
    16   14   19 ar
    17   14   15 ar
    18   15   16 ar
    19   16   17 ar
    20   17   18 ar
    21   18   19 ar
    22   20   21 2
    23   20   22 1
    24   22   23 1
    25   23   27 1
    26   23   24 1
    27   24   25 1
    28   25   26 1
    29   26   27 1
    30    1   28 1
    31    1   29 1
    32    1   30 1
    33    3   31 1
    34    4   32 1
    35    6   33 1
    36    7   34 1
    37   11   35 1
    38   12   36 1
    39   13   37 1
    40   13   38 1
    41   15   39 1
    42   16   40 1
    43   17   41 1
    44   18   42 1
    45   19   43 1
    46   22   44 1
    47   23   45 1
    48   24   46 1
    49   24   47 1
    50   25   48 1
    51   25   49 1
    52   26   50 1
    53   26   51 1
    54   27   52 1
    55   27   53 1
@<TRIPOS>MOLECULE
ZINC00880198
 57 61 0 0 0
SMALL
NO_CHARGES


@<TRIPOS>ATOM
      1 C          -3.931    -5.551     0.228  C    
      2 O          -2.786    -5.050    -0.484  O    
      3 C          -2.192    -3.982     0.132  C    
      4 C          -2.563    -2.667    -0.218  C    
      5 C          -1.927    -1.564     0.381  C    
      6 C          -0.902    -1.772     1.323  C    
      7 C          -0.509    -3.090     1.673  C    
      8 C          -1.156    -4.190     1.067  C    
      9 C           0.539    -3.232     2.585  C    
     10 C           1.204    -2.164     3.090  C    
     11 C           0.751    -0.895     2.761  C    
     12 O           1.249     0.123     3.219  O    
     13 N          -0.254    -0.720     1.906  N    
     14 C           2.406    -2.385     3.908  C    
     15 N           3.484    -3.037     3.235  N    
     16 C           4.108    -2.462     2.090  C    
     17 C           3.301    -2.610     0.846  C    
     18 C           3.004    -3.902     0.338  C    
     19 C           2.172    -4.064    -0.788  C    
     20 C           1.644    -2.923    -1.413  C    
     21 C           1.950    -1.653    -0.947  C    
     22 C           2.785    -1.476     0.170  C    
     23 O           1.352    -0.695    -1.677  O    
     24 C           0.539    -1.474    -2.576  C    
     25 O           0.825    -2.883    -2.480  O    
     26 C           4.044    -4.089     3.779  C    
     27 S           5.166    -3.807     5.035  S    
     28 N           3.456    -5.272     3.587  N    
     29 C           3.944    -6.539     3.666  C    
     30 C           5.307    -6.893     3.829  C    
     31 C           5.701    -8.243     3.886  C    
     32 C           4.741    -9.265     3.770  C    
     33 C           3.387    -8.931     3.583  C    
     34 C           2.997    -7.580     3.527  C    
     35 F           5.106   -10.517     3.818  F    
     36 H          -3.657    -5.900     1.228  H    
     37 H          -4.332    -6.397    -0.330  H    
     38 H          -4.714    -4.794     0.308  H    
     39 H          -3.297    -2.511    -0.913  H    
     40 H          -2.205    -0.614     0.121  H    
     41 H          -0.873    -5.147     1.296  H    
     42 H           0.833    -4.150     2.825  H    
     43 H          -0.534     0.183     1.688  H    
     44 H           2.801    -1.443     4.297  H    
     45 H           2.080    -2.943     4.794  H    
     46 H           4.310    -1.407     2.300  H    
     47 H           5.088    -2.907     1.877  H    
     48 H           3.378    -4.735     0.796  H    
     49 H           1.946    -4.996    -1.141  H    
     50 H           2.980    -0.529     0.501  H    
     51 H          -0.515    -1.307    -2.342  H    
     52 H           0.719    -1.142    -3.601  H    
     53 H           2.530    -5.218     3.308  H    
     54 H           6.034    -6.181     3.869  H    
     55 H           6.689    -8.479     4.001  H    
     56 H           2.684    -9.667     3.488  H    
     57 H           2.006    -7.361     3.391  H    
@<TRIPOS>BOND
     1    1    2 1
     2    2    3 1
     3    3    8 ar
     4    3    4 ar
     5    4    5 ar
     6    5    6 ar
     7    6   13 1
     8    6    7 ar
     9    7    8 ar
    10    7    9 1
    11    9   10 2
    12   10   11 1
    13   10   14 1
    14   11   12 2
    15   11   13 1
    16   14   15 1
    17   15   16 1
    18   15   26 1
    19   16   17 1
    20   17   22 ar
    21   17   18 ar
    22   18   19 ar
    23   19   20 ar
    24   20   25 1
    25   20   21 ar
    26   21   22 ar
    27   21   23 1
    28   23   24 1
    29   24   25 1
    30   26   27 2
    31   26   28 1
    32   28   29 1
    33   29   34 ar
    34   29   30 ar
    35   30   31 ar
    36   31   32 ar
    37   32   33 ar
    38   32   35 1
    39   33   34 ar
    40    1   36 1
    41    1   37 1
    42    1   38 1
    43    4   39 1
    44    5   40 1
    45    8   41 1
    46    9   42 1
    47   13   43 1
    48   14   44 1
    49   14   45 1
    50   16   46 1
    51   16   47 1
    52   18   48 1
    53   19   49 1
    54   22   50 1
    55   24   51 1
    56   24   52 1
    57   28   53 1
    58   30   54 1
    59   31   55 1
    60   33   56 1
    61   34   57 1
@<TRIPOS>MOLECULE
ZINC00885066
 53 55 0 0 0
SMALL
NO_CHARGES


@<TRIPOS>ATOM
      1 C          -2.119     1.698     2.283  C    
      2 C          -3.152     2.062     3.168  C    
      3 C          -4.126     2.997     2.768  C    
      4 C          -4.085     3.578     1.479  C    
      5 C          -3.051     3.188     0.593  C    
      6 C          -2.076     2.256     0.992  C    
      7 C          -5.081     4.613     1.099  C    
      8 N          -4.905     5.829     1.857  N    
      9 C          -5.877     6.280     2.820  C    
     10 C          -6.857     7.161     2.214  C    
     11 O          -7.714     6.679     1.477  O    
     12 N          -6.804     8.469     2.442  N    
     13 C          -7.654     9.476     1.879  C    
     14 C          -6.977    10.865     2.076  C    
     15 C          -7.847    12.009     1.498  C    
     16 C          -9.272    12.002     2.116  C    
     17 C          -9.960    10.617     1.974  C    
     18 C          -9.074     9.468     2.524  C    
     19 S          -3.548     6.796     1.525  S    
     20 O          -3.494     7.132    -0.029  O    
     21 O          -3.701     8.231     2.195  O    
     22 C          -2.053     6.142     2.126  C    
     23 C          -1.975     5.667     3.455  C    
     24 C          -0.777     5.107     3.942  C    
     25 C           0.354     5.026     3.107  C    
     26 C           0.283     5.498     1.781  C    
     27 C          -0.915     6.051     1.292  C    
     28 H          -1.408     1.025     2.578  H    
     29 H          -3.190     1.653     4.105  H    
     30 H          -4.862     3.257     3.428  H    
     31 H          -2.989     3.592    -0.344  H    
     32 H          -1.325     1.986     0.348  H    
     33 H          -5.011     4.853     0.035  H    
     34 H          -6.082     4.194     1.247  H    
     35 H          -6.398     5.433     3.273  H    
     36 H          -5.370     6.788     3.646  H    
     37 H          -6.070     8.779     3.001  H    
     38 H          -7.742     9.296     0.804  H    
     39 H          -6.809    11.049     3.142  H    
     40 H          -6.004    10.872     1.575  H    
     41 H          -7.368    12.971     1.705  H    
     42 H          -7.921    11.898     0.410  H    
     43 H          -9.203    12.265     3.176  H    
     44 H          -9.884    12.761     1.619  H    
     45 H         -10.908    10.633     2.521  H    
     46 H         -10.185    10.429     0.920  H    
     47 H          -9.567     8.515     2.320  H    
     48 H          -8.982     9.573     3.610  H    
     49 H          -2.787     5.715     4.070  H    
     50 H          -0.730     4.755     4.903  H    
     51 H           1.225     4.619     3.461  H    
     52 H           1.104     5.432     1.172  H    
     53 H          -0.953     6.375     0.326  H    
@<TRIPOS>BOND
     1    1    6 ar
     2    1    2 ar
     3    2    3 ar
     4    3    4 ar
     5    4    5 ar
     6    4    7 1
     7    5    6 ar
     8    7    8 1
     9    8    9 1
    10    8   19 1
    11    9   10 1
    12   10   11 2
    13   10   12 1
    14   12   13 1
    15   13   18 1
    16   13   14 1
    17   14   15 1
    18   15   16 1
    19   16   17 1
    20   17   18 1
    21   19   20 2
    22   19   21 2
    23   19   22 1
    24   22   27 ar
    25   22   23 ar
    26   23   24 ar
    27   24   25 ar
    28   25   26 ar
    29   26   27 ar
    30    1   28 1
    31    2   29 1
    32    3   30 1
    33    5   31 1
    34    6   32 1
    35    7   33 1
    36    7   34 1
    37    9   35 1
    38    9   36 1
    39   12   37 1
    40   13   38 1
    41   14   39 1
    42   14   40 1
    43   15   41 1
    44   15   42 1
    45   16   43 1
    46   16   44 1
    47   17   45 1
    48   17   46 1
    49   18   47 1
    50   18   48 1
    51   23   49 1
    52   24   50 1
    53   25   51 1
    54   26   52 1
    55   27   53 1
@<TRIPOS>MOLECULE
ZINC00902373
 53 56 0 0 0
SMALL
NO_CHARGES


@<TRIPOS>ATOM
      1 C           4.182     9.368    18.056  C    
      2 C           4.041     9.248    16.581  C    
      3 C           4.617     8.153    15.899  C    
      4 C           4.491     8.019    14.506  C    
      5 C           3.790     8.976    13.738  C    
      6 C           3.201    10.066    14.425  C    
      7 C           3.326    10.209    15.822  C    
      8 Cl          2.584    11.552    16.543  Cl   
      9 N           3.720     8.723    12.389  N    
     10 C           3.340     9.490    11.370  C    
     11 O           3.011    10.661    11.516  O    
     12 C           3.348     8.949    10.024  C    
     13 S           4.577     9.807     9.005  S    
     14 C           4.350     8.967     7.531  C    
     15 N           5.122     9.150     6.537  N    
     16 N           4.739     8.444     5.631  N    
     17 C           3.711     7.794     6.017  C    
     18 O           3.387     8.092     7.272  O    
     19 C           3.011     6.871     5.242  C    
     20 C           1.890     6.186     5.775  C    
     21 C           1.184     5.240     5.008  C    
     22 C           1.577     4.950     3.688  C    
     23 C           2.677     5.636     3.139  C    
     24 C           3.387     6.580     3.906  C    
     25 S           0.670     3.816     2.721  S    
     26 O          -0.167     2.808     3.623  O    
     27 O           1.730     2.954     1.906  O    
     28 N          -0.357     4.613     1.646  N    
     29 C          -1.119     5.748     2.036  C    
     30 C          -2.139     5.938     0.899  C    
     31 C          -1.505     5.216    -0.303  C    
     32 C          -0.612     4.134     0.333  C    
     33 H           4.688    10.305    18.291  H    
     34 H           4.761     8.548    18.486  H    
     35 H           3.191     9.365    18.513  H    
     36 H           5.135     7.435    16.412  H    
     37 H           4.927     7.204    14.050  H    
     38 H           2.660    10.752    13.909  H    
     39 H           4.027     7.838    12.135  H    
     40 H           3.584     7.880    10.025  H    
     41 H           2.356     9.078     9.584  H    
     42 H           1.568     6.366     6.728  H    
     43 H           0.374     4.772     5.421  H    
     44 H           2.968     5.459     2.175  H    
     45 H           4.180     7.054     3.471  H    
     46 H          -1.628     5.587     2.989  H    
     47 H          -0.462     6.617     2.112  H    
     48 H          -3.086     5.458     1.162  H    
     49 H          -2.317     6.995     0.688  H    
     50 H          -2.263     4.781    -0.960  H    
     51 H          -0.892     5.917    -0.876  H    
     52 H           0.312     4.011    -0.237  H    
     53 H          -1.142     3.179     0.385  H    
@<TRIPOS>BOND
     1    1    2 1
     2    2    7 ar
     3    2    3 ar
     4    3    4 ar
     5    4    5 ar
     6    5    6 ar
     7    5    9 1
     8    6    7 ar
     9    7    8 1
    10    9   10 1
    11   10   11 2
    12   10   12 1
    13   12   13 1
    14   13   14 1
    15   14   18 1
    16   14   15 2
    17   15   16 1
    18   16   17 2
    19   17   18 1
    20   17   19 1
    21   19   24 ar
    22   19   20 ar
    23   20   21 ar
    24   21   22 ar
    25   22   23 ar
    26   22   25 1
    27   23   24 ar
    28   25   26 2
    29   25   27 2
    30   25   28 1
    31   28   32 1
    32   28   29 1
    33   29   30 1
    34   30   31 1
    35   31   32 1
    36    1   33 1
    37    1   34 1
    38    1   35 1
    39    3   36 1
    40    4   37 1
    41    6   38 1
    42    9   39 1
    43   12   40 1
    44   12   41 1
    45   20   42 1
    46   21   43 1
    47   23   44 1
    48   24   45 1
    49   29   46 1
    50   29   47 1
    51   30   48 1
    52   30   49 1
    53   31   50 1
    54   31   51 1
    55   32   52 1
    56   32   53 1
@<TRIPOS>MOLECULE
ZINC00907027
 47 49 0 0 0
SMALL
NO_CHARGES


@<TRIPOS>ATOM
      1 C           0.125     8.298    -2.832  C    
      2 C           0.741     7.367    -1.869  C    
      3 C           1.275     6.119    -2.251  C    
      4 C           1.836     5.294    -1.253  C    
      5 N           1.846     5.730     0.036  N    
      6 C           1.338     6.935     0.395  C    
      7 N           0.787     7.729    -0.560  N    
      8 S           1.362     7.367     2.077  S    
      9 C           1.595     9.158     1.946  C    
     10 C           1.659     9.749     3.296  C    
     11 N           2.802    10.205     3.835  N    
     12 N           2.556    10.635     5.028  N    
     13 C           1.244    10.476     5.285  C    
     14 N           0.667     9.916     4.203  N    
     15 C          -0.717     9.573     4.016  C    
     16 S           0.467    10.872     6.801  S    
     17 C           1.776    11.804     7.640  C    
     18 C           1.329    12.223     8.953  C    
     19 O           0.394    13.011     9.005  O    
     20 N           1.926    11.736    10.036  N    
     21 C           1.699    11.939    11.372  C    
     22 C           0.823    12.900    11.938  C    
     23 C           0.665    13.001    13.333  C    
     24 C           1.377    12.141    14.189  C    
     25 C           2.260    11.192    13.646  C    
     26 C           2.417    11.093    12.251  C    
     27 Br          1.171    12.280    16.035  Br   
     28 C           2.400     3.971    -1.583  C    
     29 H          -0.914     8.482    -2.546  H    
     30 H           0.139     7.900    -3.849  H    
     31 H           0.671     9.246    -2.824  H    
     32 H           1.253     5.818    -3.228  H    
     33 H           2.527     9.345     1.411  H    
     34 H           0.775     9.615     1.391  H    
     35 H          -1.109    10.084     3.133  H    
     36 H          -1.334     9.856     4.870  H    
     37 H          -0.812     8.493     3.876  H    
     38 H           2.665    11.171     7.717  H    
     39 H           2.035    12.687     7.053  H    
     40 H           2.639    11.106     9.844  H    
     41 H           0.305    13.554    11.354  H    
     42 H           0.027    13.700    13.723  H    
     43 H           2.783    10.564    14.262  H    
     44 H           3.067    10.394    11.879  H    
     45 H           1.626     3.337    -2.021  H    
     46 H           2.785     3.477    -0.687  H    
     47 H           3.218     4.082    -2.296  H    
@<TRIPOS>BOND
     1    1    2 1
     2    2    7 ar
     3    2    3 ar
     4    3    4 ar
     5    4    5 ar
     6    4   28 1
     7    5    6 ar
     8    6    7 ar
     9    6    8 1
    10    8    9 1
    11    9   10 1
    12   10   14 1
    13   10   11 2
    14   11   12 1
    15   12   13 2
    16   13   14 1
    17   13   16 1
    18   14   15 1
    19   16   17 1
    20   17   18 1
    21   18   19 2
    22   18   20 1
    23   20   21 1
    24   21   26 ar
    25   21   22 ar
    26   22   23 ar
    27   23   24 ar
    28   24   25 ar
    29   24   27 1
    30   25   26 ar
    31    1   29 1
    32    1   30 1
    33    1   31 1
    34    3   32 1
    35    9   33 1
    36    9   34 1
    37   15   35 1
    38   15   36 1
    39   15   37 1
    40   17   38 1
    41   17   39 1
    42   20   40 1
    43   22   41 1
    44   23   42 1
    45   25   43 1
    46   26   44 1
    47   28   45 1
    48   28   46 1
    49   28   47 1
@<TRIPOS>MOLECULE
ZINC00910207
 54 57 0 0 0
SMALL
NO_CHARGES


@<TRIPOS>ATOM
      1 C           4.682     7.622    -1.066  C    
      2 C           4.859     8.431     0.065  C    
      3 C           4.045     8.250     1.197  C    
      4 C           3.033     7.249     1.242  C    
      5 C           2.854     6.455     0.064  C    
      6 C           3.680     6.641    -1.069  C    
      7 C           1.839     5.480     0.017  C    
      8 C           1.001     5.277     1.118  C    
      9 C           1.167     6.036     2.289  C    
     10 C           2.182     7.032     2.378  C    
     11 C           2.347     7.746     3.571  C    
     12 N           1.345     8.024     4.383  N    
     13 C           1.260     8.695     5.558  C    
     14 C           2.351     9.298     6.219  C    
     15 C           2.164     9.975     7.438  C    
     16 C           0.887    10.087     8.049  C    
     17 C          -0.195     9.472     7.365  C    
     18 C          -0.014     8.789     6.148  C    
     19 N           0.705    10.753     9.244  N    
     20 C           1.724    10.823    10.277  C    
     21 C           2.089    12.299    10.565  C    
     22 C          -0.201    12.952     9.898  C    
     23 C          -0.518    11.467     9.573  C    
     24 C           1.210    14.504    11.291  C    
     25 C           0.073    15.271    12.009  C    
     26 O           0.544    16.521    12.504  O    
     27 O           0.346     5.743     3.337  O    
     28 N           0.870    13.086    10.939  N    
     29 H           5.273     7.756    -1.890  H    
     30 H           5.580     9.156     0.063  H    
     31 H           4.206     8.882     1.982  H    
     32 H           3.553     6.073    -1.911  H    
     33 H           1.698     4.908    -0.821  H    
     34 H           0.274     4.559     1.068  H    
     35 H           3.248     8.076     3.815  H    
     36 H           3.289     9.263     5.817  H    
     37 H           2.978    10.438     7.844  H    
     38 H          -1.132     9.464     7.771  H    
     39 H          -0.824     8.352     5.698  H    
     40 H           1.325    10.377    11.193  H    
     41 H           2.632    10.264    10.049  H    
     42 H           2.810    12.313    11.387  H    
     43 H           2.572    12.729     9.682  H    
     44 H           0.105    13.460     8.978  H    
     45 H          -1.126    13.415    10.248  H    
     46 H          -1.249    11.478     8.762  H    
     47 H          -0.994    10.997    10.438  H    
     48 H           1.506    15.059    10.395  H    
     49 H           2.064    14.504    11.975  H    
     50 H          -0.747    15.477    11.319  H    
     51 H          -0.309    14.683    12.846  H    
     52 H           1.239    16.289    13.156  H    
     53 H          -0.259     5.037     3.028  H    
     54 H           0.502    12.657    11.791  H    
@<TRIPOS>BOND
     1    1    6 ar
     2    1    2 ar
     3    2    3 ar
     4    3    4 ar
     5    4   10 ar
     6    4    5 ar
     7    5    6 ar
     8    5    7 ar
     9    7    8 ar
    10    8    9 ar
    11    9   10 ar
    12    9   27 1
    13   10   11 1
    14   11   12 2
    15   12   13 1
    16   13   18 ar
    17   13   14 ar
    18   14   15 ar
    19   15   16 ar
    20   16   17 ar
    21   16   19 1
    22   17   18 ar
    23   19   23 1
    24   19   20 1
    25   20   21 1
    26   21   28 1
    27   22   23 1
    28   22   28 1
    29   24   25 1
    30   24   28 1
    31   25   26 1
    32    1   29 1
    33    2   30 1
    34    3   31 1
    35    6   32 1
    36    7   33 1
    37    8   34 1
    38   11   35 1
    39   14   36 1
    40   15   37 1
    41   17   38 1
    42   18   39 1
    43   20   40 1
    44   20   41 1
    45   21   42 1
    46   21   43 1
    47   22   44 1
    48   22   45 1
    49   23   46 1
    50   23   47 1
    51   24   48 1
    52   24   49 1
    53   25   50 1
    54   25   51 1
    55   26   52 1
    56   27   53 1
    57   28   54 1
@<TRIPOS>MOLECULE
ZINC00917407
 48 50 0 0 0
SMALL
NO_CHARGES


@<TRIPOS>ATOM
      1 C           2.963    -3.297    -4.997  C    
      2 O           2.281    -2.104    -4.574  O    
      3 C           2.834    -1.485    -3.483  C    
      4 C           4.057    -0.782    -3.557  C    
      5 C           4.558    -0.108    -2.427  C    
      6 C           3.823    -0.103    -1.217  C    
      7 C           2.597    -0.803    -1.147  C    
      8 C           2.106    -1.485    -2.275  C    
      9 N           4.259     0.628    -0.150  N    
     10 C           3.706     1.766     0.323  C    
     11 N           4.451     2.201     1.352  N    
     12 N           5.430     1.375     1.526  N    
     13 C           5.348     0.397     0.607  C    
     14 S           6.432    -0.967     0.478  S    
     15 C           7.853    -0.335     1.405  C    
     16 C           8.908    -1.322     1.442  C    
     17 O           8.734    -2.391     2.009  O    
     18 N          10.082    -1.092     0.901  N    
     19 C           2.516     2.480    -0.179  C    
     20 N           2.679     2.783    -1.568  N    
     21 C           1.764     3.332    -2.411  C    
     22 C           0.483     3.766    -1.982  C    
     23 C          -0.465     4.307    -2.885  C    
     24 C          -0.102     4.409    -4.249  C    
     25 C           1.165     3.994    -4.693  C    
     26 C           2.098     3.459    -3.785  C    
     27 Cl          3.599     2.955    -4.405  Cl   
     28 C          -1.799     4.747    -2.383  C    
     29 F          -2.644     5.236    -3.354  F    
     30 F          -2.449     3.690    -1.791  F    
     31 F          -1.643     5.744    -1.445  F    
     32 H           3.902    -3.045    -5.498  H    
     33 H           2.320    -3.809    -5.719  H    
     34 H           3.169    -3.983    -4.161  H    
     35 H           4.580    -0.754    -4.437  H    
     36 H           5.442     0.407    -2.502  H    
     37 H           2.052    -0.807    -0.277  H    
     38 H           1.208    -1.976    -2.217  H    
     39 H           8.197     0.586     0.919  H    
     40 H           7.557    -0.097     2.429  H    
     41 H          10.780    -1.765     0.951  H    
     42 H          10.261    -0.248     0.457  H    
     43 H           1.646     1.832    -0.035  H    
     44 H           2.367     3.406     0.386  H    
     45 H           3.526     2.526    -1.967  H    
     46 H           0.226     3.690    -0.993  H    
     47 H          -0.750     4.796    -4.942  H    
     48 H           1.398     4.077    -5.688  H    
@<TRIPOS>BOND
     1    1    2 1
     2    2    3 1
     3    3    8 ar
     4    3    4 ar
     5    4    5 ar
     6    5    6 ar
     7    6    7 ar
     8    6    9 1
     9    7    8 ar
    10    9   13 1
    11    9   10 1
    12   10   11 2
    13   10   19 1
    14   11   12 1
    15   12   13 2
    16   13   14 1
    17   14   15 1
    18   15   16 1
    19   16   17 2
    20   16   18 1
    21   19   20 1
    22   20   21 1
    23   21   26 ar
    24   21   22 ar
    25   22   23 ar
    26   23   24 ar
    27   23   28 1
    28   24   25 ar
    29   25   26 ar
    30   26   27 1
    31   28   29 1
    32   28   30 1
    33   28   31 1
    34    1   32 1
    35    1   33 1
    36    1   34 1
    37    4   35 1
    38    5   36 1
    39    7   37 1
    40    8   38 1
    41   15   39 1
    42   15   40 1
    43   18   41 1
    44   18   42 1
    45   19   43 1
    46   19   44 1
    47   20   45 1
    48   22   46 1
    49   24   47 1
    50   25   48 1
@<TRIPOS>MOLECULE
ZINC00917931
 45 47 0 0 0
SMALL
NO_CHARGES


@<TRIPOS>ATOM
      1 C           7.682   -11.096    -1.978  C    
      2 C           7.025   -10.148    -2.744  C    
      3 C           6.225    -9.395    -1.881  C    
      4 O           6.397    -9.879    -0.623  O    
      5 C           7.275   -10.908    -0.666  C    
      6 C           5.361    -8.316    -2.184  C    
      7 C           5.120    -7.845    -3.493  C    
      8 C           4.228    -6.764    -3.675  C    
      9 N           3.640    -6.214    -2.578  N    
     10 C           3.867    -6.663    -1.319  C    
     11 N           4.727    -7.702    -1.150  N    
     12 S           3.080    -5.855     0.005  S    
     13 C           3.241    -7.105     1.309  C    
     14 C           2.626    -6.599     2.638  C    
     15 C           2.781    -7.489     3.777  C    
     16 O           3.348    -8.567     3.658  O    
     17 N           2.315    -7.087     4.953  N    
     18 C           2.424    -7.782     6.203  C    
     19 C           3.253    -6.961     7.221  C    
     20 C           4.676    -6.604     6.740  C    
     21 C           5.475    -6.472     8.045  C    
     22 C           4.548    -7.086     9.114  C    
     23 O           3.463    -7.718     8.423  O    
     24 C           3.931    -6.226    -5.024  C    
     25 F           3.054    -5.167    -4.996  F    
     26 F           5.088    -5.787    -5.623  F    
     27 F           3.374    -7.203    -5.809  F    
     28 H           8.339   -11.801    -2.312  H    
     29 H           7.119   -10.033    -3.754  H    
     30 H           7.579   -11.455     0.141  H    
     31 H           5.573    -8.275    -4.303  H    
     32 H           2.733    -8.018     0.990  H    
     33 H           4.299    -7.324     1.463  H    
     34 H           3.095    -5.645     2.890  H    
     35 H           1.559    -6.423     2.482  H    
     36 H           1.882    -6.220     4.982  H    
     37 H           1.416    -7.925     6.599  H    
     38 H           2.878    -8.772     6.089  H    
     39 H           2.700    -6.042     7.463  H    
     40 H           5.095    -7.408     6.130  H    
     41 H           4.683    -5.674     6.165  H    
     42 H           6.422    -7.020     7.981  H    
     43 H           5.682    -5.423     8.274  H    
     44 H           5.079    -7.829     9.717  H    
     45 H           4.148    -6.312     9.776  H    
@<TRIPOS>BOND
     1    1    5 2
     2    1    2 1
     3    2    3 2
     4    3    4 1
     5    3    6 1
     6    4    5 1
     7    6   11 ar
     8    6    7 ar
     9    7    8 ar
    10    8    9 ar
    11    8   24 1
    12    9   10 ar
    13   10   11 ar
    14   10   12 1
    15   12   13 1
    16   13   14 1
    17   14   15 1
    18   15   16 2
    19   15   17 1
    20   17   18 1
    21   18   19 1
    22   19   23 1
    23   19   20 1
    24   20   21 1
    25   21   22 1
    26   22   23 1
    27   24   25 1
    28   24   26 1
    29   24   27 1
    30    1   28 1
    31    2   29 1
    32    5   30 1
    33    7   31 1
    34   13   32 1
    35   13   33 1
    36   14   34 1
    37   14   35 1
    38   17   36 1
    39   18   37 1
    40   18   38 1
    41   19   39 1
    42   20   40 1
    43   20   41 1
    44   21   42 1
    45   21   43 1
    46   22   44 1
    47   22   45 1
@<TRIPOS>MOLECULE
ZINC00917987
 45 47 0 0 0
SMALL
NO_CHARGES


@<TRIPOS>ATOM
      1 C           1.351    -5.272    -6.249  C    
      2 O           1.579    -4.755    -4.930  O    
      3 C           2.809    -4.265    -4.549  C    
      4 C           3.991    -4.267    -5.324  C    
      5 C           5.190    -3.755    -4.802  C    
      6 C           5.223    -3.229    -3.500  C    
      7 C           4.060    -3.203    -2.696  C    
      8 C           2.869    -3.731    -3.245  C    
      9 N           3.960    -2.712    -1.421  N    
     10 C           4.813    -2.037    -0.659  C    
     11 O           5.939    -1.735    -1.029  O    
     12 C           4.344    -1.600     0.648  C    
     13 C           5.345    -0.766     1.496  C    
     14 S           4.598    -0.080     3.001  S    
     15 C           3.712     1.294     2.390  C    
     16 N           3.546     1.544     1.067  N    
     17 C           2.844     2.602     0.584  C    
     18 C           2.260     3.488     1.517  C    
     19 C           2.430     3.240     2.899  C    
     20 N           3.148     2.145     3.280  N    
     21 C           1.831     4.130     3.919  C    
     22 F           2.097     3.719     5.205  F    
     23 F           2.321     5.407     3.785  F    
     24 F           0.465     4.167     3.772  F    
     25 C           2.735     2.724    -0.815  C    
     26 C           2.109     3.719    -1.568  C    
     27 C           2.271     3.394    -2.903  C    
     28 C           2.988     2.207    -2.944  C    
     29 O           3.261     1.814    -1.679  O    
     30 H           1.509    -4.497    -7.002  H    
     31 H           0.314    -5.606    -6.314  H    
     32 H           1.999    -6.128    -6.450  H    
     33 H           4.002    -4.640    -6.270  H    
     34 H           6.037    -3.769    -5.373  H    
     35 H           6.113    -2.885    -3.160  H    
     36 H           2.015    -3.727    -2.685  H    
     37 H           3.096    -2.858    -1.004  H    
     38 H           3.437    -1.015     0.489  H    
     39 H           4.065    -2.483     1.227  H    
     40 H           6.162    -1.418     1.808  H    
     41 H           5.774     0.049     0.911  H    
     42 H           1.715     4.293     1.206  H    
     43 H           1.623     4.544    -1.213  H    
     44 H           1.928     3.925    -3.705  H    
     45 H           3.266     1.708    -3.789  H    
@<TRIPOS>BOND
     1    1    2 1
     2    2    3 1
     3    3    8 ar
     4    3    4 ar
     5    4    5 ar
     6    5    6 ar
     7    6    7 ar
     8    7    8 ar
     9    7    9 1
    10    9   10 1
    11   10   11 2
    12   10   12 1
    13   12   13 1
    14   13   14 1
    15   14   15 1
    16   15   20 ar
    17   15   16 ar
    18   16   17 ar
    19   17   18 ar
    20   17   25 1
    21   18   19 ar
    22   19   20 ar
    23   19   21 1
    24   21   22 1
    25   21   23 1
    26   21   24 1
    27   25   29 1
    28   25   26 2
    29   26   27 1
    30   27   28 2
    31   28   29 1
    32    1   30 1
    33    1   31 1
    34    1   32 1
    35    4   33 1
    36    5   34 1
    37    6   35 1
    38    8   36 1
    39    9   37 1
    40   12   38 1
    41   12   39 1
    42   13   40 1
    43   13   41 1
    44   18   42 1
    45   26   43 1
    46   27   44 1
    47   28   45 1
@<TRIPOS>MOLECULE
ZINC00923241
 59 62 0 0 0
SMALL
NO_CHARGES


@<TRIPOS>ATOM
      1 C           1.110     6.213     9.870  C    
      2 C           1.309     6.780     8.450  C    
      3 O           0.072     7.371     8.004  O    
      4 C          -0.016     7.629     6.655  C    
      5 C           0.874     8.490     5.973  C    
      6 C           0.713     8.738     4.596  C    
      7 C          -0.357     8.147     3.899  C    
      8 C          -1.277     7.308     4.576  C    
      9 C          -1.096     7.055     5.955  C    
     10 C          -2.356     6.804     3.850  C    
     11 C          -2.555     7.126     2.548  C    
     12 C          -1.592     7.881     1.904  C    
     13 O          -1.649     8.140     0.708  O    
     14 N          -0.550     8.380     2.566  N    
     15 C          -3.803     6.709     1.897  C    
     16 N          -5.004     7.273     2.490  N    
     17 C          -5.218     8.709     2.502  C    
     18 C          -4.401     9.432     3.518  C    
     19 C          -3.440    10.394     3.132  C    
     20 C          -2.635    11.031     4.093  C    
     21 C          -2.793    10.730     5.457  C    
     22 C          -3.769     9.800     5.859  C    
     23 C          -4.575     9.163     4.896  C    
     24 F          -2.029    11.303     6.345  F    
     25 S          -6.370     6.281     2.699  S    
     26 O          -7.476     6.695     1.629  O    
     27 O          -6.081     4.750     2.362  O    
     28 C          -6.998     6.299     4.325  C    
     29 C          -8.271     6.840     4.602  C    
     30 C          -8.765     6.854     5.920  C    
     31 C          -7.988     6.349     6.988  C    
     32 C          -6.712     5.810     6.705  C    
     33 C          -6.222     5.782     5.384  C    
     34 C          -8.521     6.390     8.367  C    
     35 H           0.737     6.993    10.545  H    
     36 H           2.058     5.831    10.252  H    
     37 H           0.383     5.392     9.846  H    
     38 H           2.094     7.546     8.486  H    
     39 H           1.640     5.964     7.790  H    
     40 H           1.643     8.936     6.477  H    
     41 H           1.367     9.355     4.111  H    
     42 H          -1.759     6.461     6.461  H    
     43 H          -3.020     6.240     4.325  H    
     44 H           0.099     8.921     2.086  H    
     45 H          -3.816     6.966     0.835  H    
     46 H          -3.810     5.618     1.933  H    
     47 H          -5.014     9.093     1.499  H    
     48 H          -6.265     8.953     2.709  H    
     49 H          -3.297    10.614     2.147  H    
     50 H          -1.930    11.708     3.792  H    
     51 H          -3.891     9.579     6.850  H    
     52 H          -5.272     8.490     5.209  H    
     53 H          -8.849     7.224     3.850  H    
     54 H          -9.693     7.245     6.098  H    
     55 H          -6.127     5.436     7.456  H    
     56 H          -5.298     5.385     5.201  H    
     57 H          -8.776     7.418     8.635  H    
     58 H          -7.800     6.016     9.096  H    
     59 H          -9.420     5.774     8.429  H    
@<TRIPOS>BOND
     1    1    2 1
     2    2    3 1
     3    3    4 1
     4    4    9 ar
     5    4    5 ar
     6    5    6 ar
     7    6    7 ar
     8    7   14 1
     9    7    8 ar
    10    8    9 ar
    11    8   10 1
    12   10   11 2
    13   11   12 1
    14   11   15 1
    15   12   13 2
    16   12   14 1
    17   15   16 1
    18   16   17 1
    19   16   25 1
    20   17   18 1
    21   18   23 ar
    22   18   19 ar
    23   19   20 ar
    24   20   21 ar
    25   21   22 ar
    26   21   24 1
    27   22   23 ar
    28   25   26 2
    29   25   27 2
    30   25   28 1
    31   28   33 ar
    32   28   29 ar
    33   29   30 ar
    34   30   31 ar
    35   31   32 ar
    36   31   34 1
    37   32   33 ar
    38    1   35 1
    39    1   36 1
    40    1   37 1
    41    2   38 1
    42    2   39 1
    43    5   40 1
    44    6   41 1
    45    9   42 1
    46   10   43 1
    47   14   44 1
    48   15   45 1
    49   15   46 1
    50   17   47 1
    51   17   48 1
    52   19   49 1
    53   20   50 1
    54   22   51 1
    55   23   52 1
    56   29   53 1
    57   30   54 1
    58   32   55 1
    59   33   56 1
    60   34   57 1
    61   34   58 1
    62   34   59 1
@<TRIPOS>MOLECULE
ZINC00930759
 55 58 0 0 0
SMALL
NO_CHARGES


@<TRIPOS>ATOM
      1 C           4.478    -0.307     7.241  C    
      2 C           4.847     1.186     7.105  C    
      3 N           3.706     2.010     6.847  N    
      4 C           3.036     2.094     5.705  C    
      5 O           3.374     1.438     4.729  O    
      6 N           1.998     2.922     5.701  N    
      7 C           1.102     3.274     4.719  C    
      8 C           1.117     2.828     3.374  C    
      9 C           0.145     3.275     2.460  C    
     10 C          -0.847     4.183     2.870  C    
     11 C          -0.891     4.651     4.203  C    
     12 C           0.093     4.187     5.114  C    
     13 C          -1.916     5.557     4.528  C    
     14 O          -1.953     5.967     5.685  O    
     15 N          -2.827     5.980     3.611  N    
     16 C          -2.739     5.523     2.306  C    
     17 N          -1.761     4.638     1.983  N    
     18 C          -3.601     5.918     1.152  C    
     19 C          -3.259     7.272     0.625  C    
     20 C          -1.970     7.529     0.089  C    
     21 C          -1.649     8.799    -0.432  C    
     22 C          -2.609     9.826    -0.433  C    
     23 C          -3.897     9.582     0.081  C    
     24 C          -4.224     8.311     0.598  C    
     25 C          -3.869     6.913     4.029  C    
     26 C          -4.860     6.293     4.956  C    
     27 C          -5.624     5.172     4.543  C    
     28 C          -6.570     4.590     5.407  C    
     29 C          -6.761     5.110     6.702  C    
     30 C          -6.016     6.228     7.126  C    
     31 C          -5.073     6.816     6.256  C    
     32 Cl         -6.248     6.863     8.681  Cl   
     33 H           3.741    -0.444     8.036  H    
     34 H           5.367    -0.891     7.486  H    
     35 H           4.063    -0.687     6.306  H    
     36 H           5.290     1.518     8.052  H    
     37 H           5.597     1.316     6.320  H    
     38 H           3.413     2.589     7.569  H    
     39 H           1.842     3.356     6.555  H    
     40 H           1.827     2.176     3.041  H    
     41 H           0.170     2.943     1.495  H    
     42 H           0.080     4.521     6.088  H    
     43 H          -3.477     5.212     0.322  H    
     44 H          -4.649     5.853     1.451  H    
     45 H          -1.260     6.791     0.076  H    
     46 H          -0.717     8.970    -0.812  H    
     47 H          -2.374    10.748    -0.809  H    
     48 H          -4.599    10.326     0.076  H    
     49 H          -5.171     8.153     0.957  H    
     50 H          -3.390     7.782     4.492  H    
     51 H          -4.447     7.310     3.197  H    
     52 H          -5.497     4.776     3.609  H    
     53 H          -7.116     3.784     5.100  H    
     54 H          -7.446     4.676     7.329  H    
     55 H          -4.536     7.632     6.576  H    
@<TRIPOS>BOND
     1    1    2 1
     2    2    3 1
     3    3    4 1
     4    4    5 2
     5    4    6 1
     6    6    7 1
     7    7   12 ar
     8    7    8 ar
     9    8    9 ar
    10    9   10 ar
    11   10   17 1
    12   10   11 ar
    13   11   12 ar
    14   11   13 1
    15   13   14 2
    16   13   15 1
    17   15   16 1
    18   15   25 1
    19   16   17 2
    20   16   18 1
    21   18   19 1
    22   19   24 ar
    23   19   20 ar
    24   20   21 ar
    25   21   22 ar
    26   22   23 ar
    27   23   24 ar
    28   25   26 1
    29   26   31 ar
    30   26   27 ar
    31   27   28 ar
    32   28   29 ar
    33   29   30 ar
    34   30   31 ar
    35   30   32 1
    36    1   33 1
    37    1   34 1
    38    1   35 1
    39    2   36 1
    40    2   37 1
    41    3   38 1
    42    6   39 1
    43    8   40 1
    44    9   41 1
    45   12   42 1
    46   18   43 1
    47   18   44 1
    48   20   45 1
    49   21   46 1
    50   22   47 1
    51   23   48 1
    52   24   49 1
    53   25   50 1
    54   25   51 1
    55   27   52 1
    56   28   53 1
    57   29   54 1
    58   31   55 1
@<TRIPOS>MOLECULE
ZINC00983180
 55 57 0 0 0
SMALL
NO_CHARGES


@<TRIPOS>ATOM
      1 C           9.125    -4.621    -7.348  C    
      2 C           7.694    -4.347    -7.076  C    
      3 C           7.289    -3.518    -6.005  C    
      4 C           5.924    -3.261    -5.773  C    
      5 C           4.941    -3.830    -6.609  C    
      6 C           5.338    -4.670    -7.671  C    
      7 C           6.704    -4.923    -7.904  C    
      8 S           3.247    -3.543    -6.310  S    
      9 O           3.096    -2.080    -5.697  O    
     10 O           2.446    -3.443    -7.682  O    
     11 N           2.543    -4.677    -5.261  N    
     12 C           2.068    -4.251    -3.976  C    
     13 C           2.454    -5.987    -5.654  C    
     14 C           1.456    -6.313    -6.602  C    
     15 C           1.245    -7.643    -7.001  C    
     16 C           2.023    -8.670    -6.447  C    
     17 C           3.003    -8.365    -5.488  C    
     18 C           3.241    -7.028    -5.069  C    
     19 C           4.240    -6.792    -4.118  C    
     20 O           4.892    -5.758    -4.175  O    
     21 N           4.414    -7.638    -3.103  N    
     22 C           5.325    -7.596    -2.082  C    
     23 C           6.643    -7.096    -2.211  C    
     24 C           7.529    -7.115    -1.119  C    
     25 C           7.113    -7.630     0.123  C    
     26 C           5.815    -8.176     0.259  C    
     27 C           4.931    -8.146    -0.843  C    
     28 O           5.406    -8.651     1.481  O    
     29 C           5.342   -10.083     1.570  C    
     30 O           8.001    -7.656     1.167  O    
     31 C           7.890    -6.521     2.039  C    
     32 H           9.316    -5.695    -7.282  H    
     33 H           9.779    -4.114    -6.635  H    
     34 H           9.382    -4.276    -8.354  H    
     35 H           7.986    -3.098    -5.386  H    
     36 H           5.655    -2.670    -4.983  H    
     37 H           4.639    -5.103    -8.279  H    
     38 H           6.971    -5.532    -8.681  H    
     39 H           2.887    -3.806    -3.405  H    
     40 H           1.652    -5.076    -3.389  H    
     41 H           1.280    -3.506    -4.109  H    
     42 H           0.850    -5.586    -6.990  H    
     43 H           0.518    -7.863    -7.687  H    
     44 H           1.874    -9.640    -6.736  H    
     45 H           3.558    -9.138    -5.109  H    
     46 H           3.753    -8.345    -3.036  H    
     47 H           6.980    -6.741    -3.107  H    
     48 H           8.479    -6.756    -1.233  H    
     49 H           3.984    -8.518    -0.735  H    
     50 H           4.516   -10.471     0.971  H    
     51 H           5.160   -10.354     2.610  H    
     52 H           6.275   -10.553     1.253  H    
     53 H           8.031    -5.582     1.500  H    
     54 H           8.673    -6.599     2.798  H    
     55 H           6.921    -6.511     2.546  H    
@<TRIPOS>BOND
     1    1    2 1
     2    2    7 ar
     3    2    3 ar
     4    3    4 ar
     5    4    5 ar
     6    5    6 ar
     7    5    8 1
     8    6    7 ar
     9    8    9 2
    10    8   10 2
    11    8   11 1
    12   11   12 1
    13   11   13 1
    14   13   18 ar
    15   13   14 ar
    16   14   15 ar
    17   15   16 ar
    18   16   17 ar
    19   17   18 ar
    20   18   19 1
    21   19   20 2
    22   19   21 1
    23   21   22 1
    24   22   27 ar
    25   22   23 ar
    26   23   24 ar
    27   24   25 ar
    28   25   26 ar
    29   25   30 1
    30   26   27 ar
    31   26   28 1
    32   28   29 1
    33   30   31 1
    34    1   32 1
    35    1   33 1
    36    1   34 1
    37    3   35 1
    38    4   36 1
    39    6   37 1
    40    7   38 1
    41   12   39 1
    42   12   40 1
    43   12   41 1
    44   14   42 1
    45   15   43 1
    46   16   44 1
    47   17   45 1
    48   21   46 1
    49   23   47 1
    50   24   48 1
    51   27   49 1
    52   29   50 1
    53   29   51 1
    54   29   52 1
    55   31   53 1
    56   31   54 1
    57   31   55 1
@<TRIPOS>MOLECULE
ZINC01010757
 51 53 0 0 0
SMALL
NO_CHARGES


@<TRIPOS>ATOM
      1 C           2.176    -1.371    -2.260  C    
      2 C           3.491    -0.999    -2.983  C    
      3 O           4.646    -1.696    -2.468  O    
      4 C           4.757    -3.005    -2.854  C    
      5 C           4.371    -4.035    -1.978  C    
      6 C           4.515    -5.382    -2.358  C    
      7 C           5.041    -5.730    -3.626  C    
      8 C           5.459    -4.683    -4.492  C    
      9 C           5.329    -3.335    -4.098  C    
     10 O           6.008    -4.972    -5.716  O    
     11 C           5.083    -4.828    -6.814  C    
     12 C           5.664    -5.550    -8.044  C    
     13 C           5.241    -7.062    -3.991  C    
     14 C           4.373    -8.094    -3.867  C    
     15 C           4.649    -9.372    -4.213  C    
     16 O           5.789    -9.758    -4.454  O    
     17 N           3.602   -10.185    -4.236  N    
     18 C           2.459    -9.525    -3.940  C    
     19 N           1.161    -9.901    -4.006  N    
     20 C           0.474   -10.920    -4.586  C    
     21 C          -0.662   -11.430    -3.927  C    
     22 C          -1.427   -12.457    -4.512  C    
     23 C          -1.094   -12.984    -5.783  C    
     24 C           0.027   -12.437    -6.454  C    
     25 C           0.798   -11.417    -5.866  C    
     26 C          -1.862   -14.026    -6.367  C    
     27 O          -1.550   -14.555    -7.573  O    
     28 S           2.736    -7.905    -3.407  S    
     29 C           3.733   -11.603    -4.467  C    
     30 O          -2.918   -14.579    -5.724  O    
     31 H           1.911    -2.415    -2.462  H    
     32 H           1.367    -0.729    -2.614  H    
     33 H           2.293    -1.229    -1.180  H    
     34 H           3.372    -1.152    -4.061  H    
     35 H           3.671     0.067    -2.821  H    
     36 H           3.993    -3.803    -1.057  H    
     37 H           4.266    -6.105    -1.680  H    
     38 H           5.647    -2.590    -4.721  H    
     39 H           4.098    -5.263    -6.590  H    
     40 H           4.949    -3.765    -7.050  H    
     41 H           6.667    -5.166    -8.271  H    
     42 H           5.020    -5.389    -8.910  H    
     43 H           5.732    -6.624    -7.848  H    
     44 H           6.105    -7.253    -4.444  H    
     45 H          -0.936   -11.062    -3.012  H    
     46 H          -2.237   -12.810    -3.996  H    
     47 H           0.290   -12.766    -7.386  H    
     48 H           1.586   -11.025    -6.385  H    
     49 H           3.951   -11.789    -5.524  H    
     50 H           2.837   -12.159    -4.185  H    
     51 H           4.550   -12.011    -3.866  H    
@<TRIPOS>BOND
     1    1    2 1
     2    2    3 1
     3    3    4 1
     4    4    9 ar
     5    4    5 ar
     6    5    6 ar
     7    6    7 ar
     8    7    8 ar
     9    7   13 1
    10    8    9 ar
    11    8   10 1
    12   10   11 1
    13   11   12 1
    14   13   14 2
    15   14   28 1
    16   14   15 1
    17   15   16 2
    18   15   17 1
    19   17   18 1
    20   17   29 1
    21   18   19 2
    22   18   28 1
    23   19   20 1
    24   20   25 ar
    25   20   21 ar
    26   21   22 ar
    27   22   23 ar
    28   23   24 ar
    29   23   26 1
    30   24   25 ar
    31   26   27 2
    32   26   30 1
    33    1   31 1
    34    1   32 1
    35    1   33 1
    36    2   34 1
    37    2   35 1
    38    5   36 1
    39    6   37 1
    40    9   38 1
    41   11   39 1
    42   11   40 1
    43   12   41 1
    44   12   42 1
    45   12   43 1
    46   13   44 1
    47   21   45 1
    48   22   46 1
    49   24   47 1
    50   25   48 1
    51   29   49 1
    52   29   50 1
    53   29   51 1
@<TRIPOS>MOLECULE
ZINC01011695
 49 51 0 0 0
SMALL
NO_CHARGES


@<TRIPOS>ATOM
      1 C           9.681    -0.288     1.060  C    
      2 C           8.264    -0.837     0.821  C    
      3 O           8.080    -1.054    -0.596  O    
      4 C           6.785    -1.288    -0.978  C    
      5 C           6.148    -2.507    -0.667  C    
      6 C           4.821    -2.735    -1.067  C    
      7 C           4.136    -1.768    -1.822  C    
      8 C           4.778    -0.567    -2.207  C    
      9 C           6.100    -0.319    -1.750  C    
     10 O           6.707     0.868    -2.026  O    
     11 C           4.080     0.343    -2.995  C    
     12 C           4.475     0.816    -4.200  C    
     13 C           3.787     1.712    -4.945  C    
     14 O           2.793     2.298    -4.527  O    
     15 N           4.286     1.934    -6.154  N    
     16 C           5.394     1.195    -6.390  C    
     17 N           6.091     1.260    -7.550  N    
     18 C           7.160     0.648    -8.129  C    
     19 C           7.673    -0.608    -7.746  C    
     20 C           8.761    -1.181    -8.429  C    
     21 C           9.366    -0.519    -9.522  C    
     22 C           8.836     0.733    -9.912  C    
     23 C           7.745     1.301    -9.229  C    
     24 C          10.461    -1.103   -10.213  C    
     25 O          11.084    -0.441   -11.219  O    
     26 O          10.885    -2.353    -9.878  O    
     27 C          11.957    -3.117   -10.438  C    
     28 S           5.846     0.220    -5.032  S    
     29 C           3.691     2.858    -7.088  C    
     30 H          10.429    -0.954     0.618  H    
     31 H           9.874    -0.210     2.137  H    
     32 H           9.775     0.706     0.611  H    
     33 H           8.158    -1.785     1.359  H    
     34 H           7.541    -0.117     1.218  H    
     35 H           6.643    -3.227    -0.135  H    
     36 H           4.361    -3.612    -0.818  H    
     37 H           3.177    -1.967    -2.119  H    
     38 H           7.613     0.806    -1.658  H    
     39 H           3.173     0.593    -2.670  H    
     40 H           7.248    -1.139    -6.987  H    
     41 H           9.100    -2.093    -8.115  H    
     42 H           9.236     1.247   -10.701  H    
     43 H           7.384     2.207    -9.541  H    
     44 H          12.504    -2.569   -11.206  H    
     45 H          11.551    -4.029   -10.872  H    
     46 H          12.649    -3.384    -9.639  H    
     47 H           2.661     2.556    -7.305  H    
     48 H           4.230     2.912    -8.038  H    
     49 H           3.681     3.864    -6.661  H    
@<TRIPOS>BOND
     1    1    2 1
     2    2    3 1
     3    3    4 1
     4    4    9 ar
     5    4    5 ar
     6    5    6 ar
     7    6    7 ar
     8    7    8 ar
     9    8    9 ar
    10    8   11 1
    11    9   10 1
    12   11   12 2
    13   12   28 1
    14   12   13 1
    15   13   14 2
    16   13   15 1
    17   15   16 1
    18   15   29 1
    19   16   17 2
    20   16   28 1
    21   17   18 1
    22   18   23 ar
    23   18   19 ar
    24   19   20 ar
    25   20   21 ar
    26   21   22 ar
    27   21   24 1
    28   22   23 ar
    29   24   25 2
    30   24   26 1
    31   26   27 1
    32    1   30 1
    33    1   31 1
    34    1   32 1
    35    2   33 1
    36    2   34 1
    37    5   35 1
    38    6   36 1
    39    7   37 1
    40   10   38 1
    41   11   39 1
    42   19   40 1
    43   20   41 1
    44   22   42 1
    45   23   43 1
    46   27   44 1
    47   27   45 1
    48   27   46 1
    49   29   47 1
    50   29   48 1
    51   29   49 1
@<TRIPOS>MOLECULE
ZINC01017118
 53 55 0 0 0
SMALL
NO_CHARGES


@<TRIPOS>ATOM
      1 C          -3.148    -7.873    -3.150  C    
      2 C          -1.956    -7.047    -3.456  C    
      3 C          -1.923    -5.670    -3.165  C    
      4 C          -0.777    -4.909    -3.457  C    
      5 C           0.365    -5.492    -4.061  C    
      6 C           0.337    -6.887    -4.350  C    
      7 C          -0.822    -7.644    -4.043  C    
      8 C           1.501    -7.579    -4.971  C    
      9 N           1.512    -4.793    -4.377  N    
     10 C           1.832    -3.501    -4.339  C    
     11 O           1.031    -2.656    -3.964  O    
     12 C           3.110    -3.074    -4.723  C    
     13 C           3.915    -3.825    -5.619  C    
     14 C           5.196    -3.382    -6.002  C    
     15 C           5.723    -2.167    -5.504  C    
     16 C           4.937    -1.422    -4.600  C    
     17 C           3.650    -1.860    -4.225  C    
     18 N           6.964    -1.666    -5.797  N    
     19 C           7.757    -1.899    -6.838  C    
     20 O           7.416    -2.609    -7.774  O    
     21 C           9.041    -1.218    -6.863  C    
     22 C           9.913    -1.530    -8.029  C    
     23 C          10.850    -2.587    -7.968  C    
     24 C          11.684    -2.872    -9.067  C    
     25 C          11.594    -2.110   -10.259  C    
     26 C          10.647    -1.067   -10.319  C    
     27 C           9.811    -0.781    -9.222  C    
     28 O          12.352    -2.283   -11.396  O    
     29 C          13.340    -3.321   -11.476  C    
     30 H          -3.523    -8.335    -4.068  H    
     31 H          -3.956    -7.287    -2.712  H    
     32 H          -2.876    -8.661    -2.446  H    
     33 H          -2.730    -5.208    -2.736  H    
     34 H          -0.806    -3.923    -3.199  H    
     35 H          -0.844    -8.645    -4.248  H    
     36 H           1.730    -7.124    -5.934  H    
     37 H           1.317    -8.643    -5.139  H    
     38 H           2.373    -7.492    -4.319  H    
     39 H           2.231    -5.358    -4.689  H    
     40 H           3.576    -4.702    -6.021  H    
     41 H           5.741    -3.976    -6.626  H    
     42 H           5.293    -0.545    -4.209  H    
     43 H           3.125    -1.285    -3.564  H    
     44 H           7.304    -1.011    -5.167  H    
     45 H           8.857    -0.139    -6.835  H    
     46 H           9.578    -1.461    -5.946  H    
     47 H          10.932    -3.156    -7.122  H    
     48 H          12.354    -3.640    -8.990  H    
     49 H          10.555    -0.506   -11.168  H    
     50 H           9.130    -0.022    -9.299  H    
     51 H          14.103    -3.190   -10.703  H    
     52 H          13.822    -3.262   -12.453  H    
     53 H          12.876    -4.305   -11.378  H    
@<TRIPOS>BOND
     1    1    2 1
     2    2    7 ar
     3    2    3 ar
     4    3    4 ar
     5    4    5 ar
     6    5    6 ar
     7    5    9 1
     8    6    7 ar
     9    6    8 1
    10    9   10 1
    11   10   11 2
    12   10   12 1
    13   12   17 ar
    14   12   13 ar
    15   13   14 ar
    16   14   15 ar
    17   15   16 ar
    18   15   18 1
    19   16   17 ar
    20   18   19 1
    21   19   20 2
    22   19   21 1
    23   21   22 1
    24   22   27 ar
    25   22   23 ar
    26   23   24 ar
    27   24   25 ar
    28   25   26 ar
    29   25   28 1
    30   26   27 ar
    31   28   29 1
    32    1   30 1
    33    1   31 1
    34    1   32 1
    35    3   33 1
    36    4   34 1
    37    7   35 1
    38    8   36 1
    39    8   37 1
    40    8   38 1
    41    9   39 1
    42   13   40 1
    43   14   41 1
    44   16   42 1
    45   17   43 1
    46   18   44 1
    47   21   45 1
    48   21   46 1
    49   23   47 1
    50   24   48 1
    51   26   49 1
    52   27   50 1
    53   29   51 1
    54   29   52 1
    55   29   53 1
@<TRIPOS>MOLECULE
ZINC01044002
 39 39 0 0 0
SMALL
NO_CHARGES


@<TRIPOS>ATOM
      1 C           9.890    -9.968   -10.465  C    
      2 C           8.380    -9.817   -10.230  C    
      3 O           8.073   -10.090    -8.858  O    
      4 C           6.841   -10.081    -8.281  C    
      5 O           5.765    -9.779    -9.046  O    
      6 C           6.701   -10.341    -6.887  C    
      7 C           7.768    -9.996    -6.024  C    
      8 C           7.724   -10.184    -4.616  C    
      9 C           6.535   -10.755    -4.074  C    
     10 C           5.480   -11.129    -4.932  C    
     11 C           5.527   -10.909    -6.325  C    
     12 N           4.516   -11.342    -7.149  N    
     13 C           3.203   -11.408    -6.931  C    
     14 O           2.681   -11.013    -5.898  O    
     15 C           2.358   -11.900    -7.996  C    
     16 O           6.442   -10.985    -2.723  O    
     17 C           5.452   -11.261    -1.835  C    
     18 O           4.145   -11.280    -2.177  O    
     19 C           5.827   -11.462    -0.431  C    
     20 C           8.821    -9.801    -3.805  C    
     21 O           8.744    -9.845    -2.587  O    
     22 C          10.101    -9.333    -4.309  C    
     23 H          10.443    -9.290    -9.809  H    
     24 H          10.127    -9.728   -11.504  H    
     25 H          10.201   -10.995   -10.258  H    
     26 H           8.077    -8.797   -10.477  H    
     27 H           7.844   -10.514   -10.877  H    
     28 H           8.596    -9.569    -6.443  H    
     29 H           4.685   -11.630    -4.541  H    
     30 H           4.793   -11.586    -8.047  H    
     31 H           2.445   -11.242    -8.864  H    
     32 H           1.304   -11.940    -7.695  H    
     33 H           2.670   -12.909    -8.282  H    
     34 H           6.483   -12.334    -0.356  H    
     35 H           4.940   -11.630     0.188  H    
     36 H           6.356   -10.578    -0.057  H    
     37 H          10.535   -10.084    -4.969  H    
     38 H          10.819    -9.142    -3.505  H    
     39 H           9.966    -8.404    -4.862  H    
@<TRIPOS>BOND
     1    1    2 1
     2    2    3 1
     3    3    4 1
     4    4    5 2
     5    4    6 1
     6    6   11 ar
     7    6    7 ar
     8    7    8 ar
     9    8    9 ar
    10    8   20 1
    11    9   10 ar
    12    9   16 1
    13   10   11 ar
    14   11   12 1
    15   12   13 1
    16   13   14 2
    17   13   15 1
    18   16   17 1
    19   17   18 2
    20   17   19 1
    21   20   21 2
    22   20   22 1
    23    1   23 1
    24    1   24 1
    25    1   25 1
    26    2   26 1
    27    2   27 1
    28    7   28 1
    29   10   29 1
    30   12   30 1
    31   15   31 1
    32   15   32 1
    33   15   33 1
    34   19   34 1
    35   19   35 1
    36   19   36 1
    37   22   37 1
    38   22   38 1
    39   22   39 1
@<TRIPOS>MOLECULE
ZINC01047710
 54 55 0 0 0
SMALL
NO_CHARGES


@<TRIPOS>ATOM
      1 C           2.439    -3.057    -1.081  C    
      2 C           3.033    -1.637    -0.794  C    
      3 C           1.944    -0.565    -1.130  C    
      4 C           3.411    -1.548     0.716  C    
      5 C           4.255    -1.348    -1.613  C    
      6 C           4.937    -2.151    -2.524  C    
      7 C           5.997    -1.403    -3.029  C    
      8 N           5.936    -0.201    -2.392  N    
      9 N           4.920    -0.179    -1.581  N    
     10 C           6.850     0.906    -2.436  C    
     11 C           8.085     0.602    -1.665  C    
     12 C           7.998     0.373    -0.267  C    
     13 C           9.145     0.055     0.484  C    
     14 C          10.397    -0.040    -0.151  C    
     15 C          10.502     0.186    -1.538  C    
     16 C           9.354     0.510    -2.287  C    
     17 C           6.891    -1.849    -3.996  C    
     18 O           7.615    -1.043    -4.571  O    
     19 N           6.959    -3.130    -4.320  N    
     20 N           7.772    -3.610    -5.223  N    
     21 C           7.851    -4.890    -5.555  C    
     22 O           7.129    -5.699    -4.981  O    
     23 C           8.789    -5.320    -6.611  C    
     24 C           8.716    -6.862    -6.870  C    
     25 C           8.458    -4.587    -7.949  C    
     26 C          10.254    -4.966    -6.175  C    
     27 H           1.543    -3.235    -0.480  H    
     28 H           3.165    -3.838    -0.840  H    
     29 H           2.164    -3.160    -2.134  H    
     30 H           1.686    -0.594    -2.188  H    
     31 H           2.302     0.440    -0.894  H    
     32 H           1.034    -0.736    -0.550  H    
     33 H           2.536    -1.724     1.348  H    
     34 H           3.809    -0.561     0.963  H    
     35 H           4.170    -2.292     0.968  H    
     36 H           4.693    -3.106    -2.792  H    
     37 H           7.066     1.166    -3.474  H    
     38 H           6.395     1.798    -1.988  H    
     39 H           7.096     0.428     0.213  H    
     40 H           9.068    -0.112     1.489  H    
     41 H          11.229    -0.289     0.391  H    
     42 H          11.413     0.116    -1.996  H    
     43 H           9.449     0.666    -3.293  H    
     44 H           6.383    -3.756    -3.849  H    
     45 H           8.350    -2.988    -5.691  H    
     46 H           8.957    -7.421    -5.961  H    
     47 H           9.418    -7.168    -7.653  H    
     48 H           7.708    -7.149    -7.190  H    
     49 H           7.441    -4.823    -8.279  H    
     50 H           9.148    -4.893    -8.742  H    
     51 H           8.537    -3.503    -7.841  H    
     52 H          10.382    -3.886    -6.064  H    
     53 H          10.973    -5.311    -6.923  H    
     54 H          10.497    -5.438    -5.222  H    
@<TRIPOS>BOND
     1    1    2 1
     2    2    3 1
     3    2    4 1
     4    2    5 1
     5    5    9 2
     6    5    6 1
     7    6    7 2
     8    7    8 1
     9    7   17 1
    10    8    9 1
    11    8   10 1
    12   10   11 1
    13   11   16 ar
    14   11   12 ar
    15   12   13 ar
    16   13   14 ar
    17   14   15 ar
    18   15   16 ar
    19   17   18 2
    20   17   19 1
    21   19   20 1
    22   20   21 1
    23   21   22 2
    24   21   23 1
    25   23   24 1
    26   23   25 1
    27   23   26 1
    28    1   27 1
    29    1   28 1
    30    1   29 1
    31    3   30 1
    32    3   31 1
    33    3   32 1
    34    4   33 1
    35    4   34 1
    36    4   35 1
    37    6   36 1
    38   10   37 1
    39   10   38 1
    40   12   39 1
    41   13   40 1
    42   14   41 1
    43   15   42 1
    44   16   43 1
    45   19   44 1
    46   20   45 1
    47   24   46 1
    48   24   47 1
    49   24   48 1
    50   25   49 1
    51   25   50 1
    52   25   51 1
    53   26   52 1
    54   26   53 1
    55   26   54 1
@<TRIPOS>MOLECULE
ZINC01064422
 44 46 0 0 0
SMALL
NO_CHARGES


@<TRIPOS>ATOM
      1 C           0.467    -6.673    -5.409  C    
      2 C           0.503    -6.746    -3.927  C    
      3 C          -0.602    -7.255    -3.204  C    
      4 C          -0.561    -7.351    -1.801  C    
      5 C           0.590    -6.947    -1.102  C    
      6 C           1.695    -6.440    -1.806  C    
      7 C           1.651    -6.315    -3.211  C    
      8 O           2.758    -5.851    -3.873  O    
      9 C           2.874    -4.413    -3.886  C    
     10 C           4.075    -3.993    -4.636  C    
     11 N           4.934    -4.850    -5.212  N    
     12 N           5.884    -4.178    -5.772  N    
     13 C           5.653    -2.873    -5.569  C    
     14 N           4.518    -2.735    -4.855  N    
     15 C           3.937    -1.497    -4.403  C    
     16 C           3.451    -0.651    -5.526  C    
     17 C           2.412    -1.115    -6.367  C    
     18 C           1.946    -0.326    -7.436  C    
     19 C           2.512     0.938    -7.676  C    
     20 C           3.543     1.414    -6.847  C    
     21 C           4.007     0.626    -5.776  C    
     22 S           6.724    -1.626    -6.137  S    
     23 C           6.191    -1.677    -7.865  C    
     24 C           6.852    -0.602    -8.617  C    
     25 O           6.127     0.376    -9.204  O    
     26 O           8.196    -0.596    -8.769  O    
     27 H           0.580    -5.637    -5.733  H    
     28 H          -0.472    -7.053    -5.819  H    
     29 H           1.283    -7.267    -5.826  H    
     30 H          -1.445    -7.568    -3.694  H    
     31 H          -1.364    -7.724    -1.290  H    
     32 H           0.624    -7.027    -0.084  H    
     33 H           2.534    -6.159    -1.293  H    
     34 H           1.998    -3.964    -4.360  H    
     35 H           2.963    -4.032    -2.865  H    
     36 H           3.089    -1.677    -3.738  H    
     37 H           4.686    -0.970    -3.806  H    
     38 H           1.989    -2.033    -6.208  H    
     39 H           1.194    -0.672    -8.038  H    
     40 H           2.173     1.512    -8.453  H    
     41 H           3.956     2.333    -7.021  H    
     42 H           4.760     0.990    -5.187  H    
     43 H           6.458    -2.639    -8.306  H    
     44 H           5.108    -1.552    -7.920  H    
@<TRIPOS>BOND
     1    1    2 1
     2    2    7 ar
     3    2    3 ar
     4    3    4 ar
     5    4    5 ar
     6    5    6 ar
     7    6    7 ar
     8    7    8 1
     9    8    9 1
    10    9   10 1
    11   10   14 1
    12   10   11 2
    13   11   12 1
    14   12   13 2
    15   13   14 1
    16   13   22 1
    17   14   15 1
    18   15   16 1
    19   16   21 ar
    20   16   17 ar
    21   17   18 ar
    22   18   19 ar
    23   19   20 ar
    24   20   21 ar
    25   22   23 1
    26   23   24 1
    27   24   25 2
    28   24   26 1
    29    1   27 1
    30    1   28 1
    31    1   29 1
    32    3   30 1
    33    4   31 1
    34    5   32 1
    35    6   33 1
    36    9   34 1
    37    9   35 1
    38   15   36 1
    39   15   37 1
    40   17   38 1
    41   18   39 1
    42   19   40 1
    43   20   41 1
    44   21   42 1
    45   23   43 1
    46   23   44 1
@<TRIPOS>MOLECULE
ZINC01070659
 59 63 0 0 0
SMALL
NO_CHARGES


@<TRIPOS>ATOM
      1 C           2.631   -11.330    -4.233  C    
      2 C           3.071   -10.066    -4.875  C    
      3 C           2.624    -9.777    -6.189  C    
      4 C           2.987    -8.582    -6.834  C    
      5 C           3.834    -7.660    -6.189  C    
      6 C           4.315    -7.958    -4.897  C    
      7 C           3.920    -9.130    -4.216  C    
      8 S           4.515    -9.300    -2.579  S    
      9 O           3.852   -10.396    -1.634  O    
     10 O           6.039    -9.736    -2.719  O    
     11 N           4.591    -7.840    -1.736  N    
     12 C           3.452    -7.017    -1.502  C    
     13 C           3.572    -5.657    -2.078  C    
     14 C           2.514    -4.727    -1.949  C    
     15 C           2.647    -3.442    -2.510  C    
     16 C           3.821    -3.092    -3.198  C    
     17 C           4.851    -4.041    -3.306  C    
     18 N           4.694    -5.268    -2.746  N    
     19 C           4.127    -6.434    -6.759  C    
     20 C           3.381    -5.294    -6.576  C    
     21 C           2.190    -5.278    -5.799  C    
     22 C           1.419    -4.111    -5.681  C    
     23 C           1.817    -2.941    -6.339  C    
     24 C           2.996    -2.930    -7.103  C    
     25 C           3.816    -4.083    -7.211  C    
     26 C           5.009    -4.129    -7.952  C    
     27 N           5.610    -5.344    -8.055  N    
     28 N           5.181    -6.387    -7.489  N    
     29 N           5.697    -3.157    -8.604  N    
     30 C           5.662    -1.805    -8.444  C    
     31 C           5.729    -1.198    -7.169  C    
     32 C           5.729     0.202    -7.049  C    
     33 C           5.689     1.008    -8.202  C    
     34 C           5.666     0.413    -9.479  C    
     35 C           5.669    -0.990    -9.596  C    
     36 O           5.646     1.174   -10.602  O    
     37 H           3.505   -11.910    -3.921  H    
     38 H           2.036   -11.957    -4.900  H    
     39 H           2.015   -11.102    -3.360  H    
     40 H           2.007   -10.425    -6.684  H    
     41 H           2.619    -8.384    -7.769  H    
     42 H           4.947    -7.295    -4.440  H    
     43 H           5.454    -7.535    -1.418  H    
     44 H           2.551    -7.490    -1.900  H    
     45 H           3.334    -6.926    -0.423  H    
     46 H           1.655    -4.977    -1.455  H    
     47 H           1.886    -2.763    -2.422  H    
     48 H           3.923    -2.164    -3.615  H    
     49 H           5.713    -3.815    -3.802  H    
     50 H           1.863    -6.117    -5.315  H    
     51 H           0.562    -4.116    -5.122  H    
     52 H           1.242    -2.097    -6.271  H    
     53 H           3.213    -2.074    -7.609  H    
     54 H           6.382    -3.474    -9.215  H    
     55 H           5.774    -1.773    -6.324  H    
     56 H           5.763     0.634    -6.124  H    
     57 H           5.689     2.025    -8.109  H    
     58 H           5.658    -1.418   -10.527  H    
     59 H           5.686     2.105   -10.291  H    
@<TRIPOS>BOND
     1    1    2 1
     2    2    7 ar
     3    2    3 ar
     4    3    4 ar
     5    4    5 ar
     6    5    6 ar
     7    5   19 1
     8    6    7 ar
     9    7    8 1
    10    8    9 2
    11    8   10 2
    12    8   11 1
    13   11   12 1
    14   12   13 1
    15   13   18 ar
    16   13   14 ar
    17   14   15 ar
    18   15   16 ar
    19   16   17 ar
    20   17   18 ar
    21   19   28 ar
    22   19   20 ar
    23   20   25 ar
    24   20   21 ar
    25   21   22 ar
    26   22   23 ar
    27   23   24 ar
    28   24   25 ar
    29   25   26 ar
    30   26   27 ar
    31   26   29 1
    32   27   28 ar
    33   29   30 1
    34   30   35 ar
    35   30   31 ar
    36   31   32 ar
    37   32   33 ar
    38   33   34 ar
    39   34   35 ar
    40   34   36 1
    41    1   37 1
    42    1   38 1
    43    1   39 1
    44    3   40 1
    45    4   41 1
    46    6   42 1
    47   11   43 1
    48   12   44 1
    49   12   45 1
    50   14   46 1
    51   15   47 1
    52   16   48 1
    53   17   49 1
    54   21   50 1
    55   22   51 1
    56   23   52 1
    57   24   53 1
    58   29   54 1
    59   31   55 1
    60   32   56 1
    61   33   57 1
    62   35   58 1
    63   36   59 1
@<TRIPOS>MOLECULE
ZINC01076663
 55 57 0 0 0
SMALL
NO_CHARGES


@<TRIPOS>ATOM
      1 C          -0.475    -7.354    -1.052  C    
      2 C           0.950    -7.633    -1.583  C    
      3 C           1.379    -6.662    -2.716  C    
      4 C           2.721    -6.946    -3.214  C    
      5 O           3.683    -6.799    -2.471  O    
      6 C           2.963    -7.265    -4.522  C    
      7 C           3.195    -6.292    -5.449  C    
      8 C           3.398    -6.635    -6.864  C    
      9 C           2.619    -7.916    -7.261  C    
     10 C           2.907    -9.062    -6.256  C    
     11 C           2.943    -8.603    -4.871  C    
     12 O           3.085    -9.480    -4.026  O    
     13 N           3.225    -5.028    -5.092  N    
     14 C           4.163    -4.075    -5.503  C    
     15 C           4.199    -2.894    -4.502  C    
     16 C           5.139    -1.821    -4.912  C    
     17 C           6.537    -1.824    -4.793  C    
     18 N           7.005    -0.634    -5.219  N    
     19 C           5.983     0.142    -5.601  C    
     20 C           4.795    -0.567    -5.426  C    
     21 C           3.562     0.033    -5.747  C    
     22 C           3.535     1.364    -6.225  C    
     23 C           4.752     2.077    -6.370  C    
     24 C           5.988     1.465    -6.073  C    
     25 O           2.304     1.933    -6.443  O    
     26 C           2.066     2.429    -7.771  C    
     27 C           7.396    -2.890    -4.245  C    
     28 H          -0.545    -6.340    -0.655  H    
     29 H          -0.713    -8.055    -0.252  H    
     30 H          -1.213    -7.470    -1.847  H    
     31 H           1.650    -7.551    -0.745  H    
     32 H           0.987    -8.663    -1.954  H    
     33 H           0.648    -6.730    -3.529  H    
     34 H           1.362    -5.633    -2.341  H    
     35 H           3.066    -5.821    -7.518  H    
     36 H           4.469    -6.797    -7.035  H    
     37 H           1.548    -7.691    -7.251  H    
     38 H           2.897    -8.230    -8.272  H    
     39 H           2.134    -9.827    -6.370  H    
     40 H           3.872    -9.519    -6.501  H    
     41 H           2.717    -4.802    -4.341  H    
     42 H           5.154    -4.531    -5.568  H    
     43 H           3.889    -3.706    -6.495  H    
     44 H           3.191    -2.489    -4.410  H    
     45 H           4.487    -3.259    -3.512  H    
     46 H           7.940    -0.374    -5.233  H    
     47 H           2.689    -0.485    -5.627  H    
     48 H           4.744     3.048    -6.687  H    
     49 H           6.864     1.982    -6.177  H    
     50 H           2.577     3.390    -7.914  H    
     51 H           0.988     2.600    -7.871  H    
     52 H           2.381     1.718    -8.551  H    
     53 H           7.085    -3.127    -3.223  H    
     54 H           8.440    -2.569    -4.227  H    
     55 H           7.323    -3.786    -4.861  H    
@<TRIPOS>BOND
     1    1    2 1
     2    2    3 1
     3    3    4 1
     4    4    5 2
     5    4    6 1
     6    6   11 1
     7    6    7 2
     8    7    8 1
     9    7   13 1
    10    8    9 1
    11    9   10 1
    12   10   11 1
    13   11   12 2
    14   13   14 1
    15   14   15 1
    16   15   16 1
    17   16   20 1
    18   16   17 2
    19   17   18 1
    20   17   27 1
    21   18   19 1
    22   19   24 ar
    23   19   20 ar
    24   20   21 ar
    25   21   22 ar
    26   22   23 ar
    27   22   25 1
    28   23   24 ar
    29   25   26 1
    30    1   28 1
    31    1   29 1
    32    1   30 1
    33    2   31 1
    34    2   32 1
    35    3   33 1
    36    3   34 1
    37    8   35 1
    38    8   36 1
    39    9   37 1
    40    9   38 1
    41   10   39 1
    42   10   40 1
    43   13   41 1
    44   14   42 1
    45   14   43 1
    46   15   44 1
    47   15   45 1
    48   18   46 1
    49   21   47 1
    50   23   48 1
    51   24   49 1
    52   26   50 1
    53   26   51 1
    54   26   52 1
    55   27   53 1
    56   27   54 1
    57   27   55 1
@<TRIPOS>MOLECULE
ZINC01084738
 49 51 0 0 0
SMALL
NO_CHARGES


@<TRIPOS>ATOM
      1 C          -1.357    -7.283    -1.709  C    
      2 C          -0.589    -5.948    -2.028  C    
      3 C           0.187    -5.556    -0.725  C    
      4 C          -1.673    -4.865    -2.335  C    
      5 C           0.387    -6.041    -3.196  C    
      6 C           0.599    -7.233    -3.943  C    
      7 C           1.521    -7.289    -5.003  C    
      8 C           2.258    -6.151    -5.363  C    
      9 C           2.075    -4.951    -4.638  C    
     10 C           1.148    -4.903    -3.582  C    
     11 O           2.744    -3.803    -4.996  O    
     12 C           3.964    -3.984    -5.766  C    
     13 C           3.689    -5.012    -6.903  C    
     14 O           3.203    -6.255    -6.359  O    
     15 C           4.460    -2.715    -6.270  C    
     16 O           3.779    -1.701    -6.157  O    
     17 N           5.654    -2.663    -6.836  N    
     18 N           6.145    -1.594    -7.319  N    
     19 C           7.293    -1.491    -7.888  C    
     20 C           7.783    -0.285    -8.391  C    
     21 C           7.077     0.933    -8.199  C    
     22 C           7.581     2.158    -8.671  C    
     23 C           8.816     2.200    -9.343  C    
     24 C           9.531     1.008    -9.555  C    
     25 C           9.023    -0.228    -9.093  C    
     26 O           9.785    -1.327    -9.368  O    
     27 O           9.327     3.382    -9.781  O    
     28 H          -0.659    -8.086    -1.457  H    
     29 H          -1.958    -7.601    -2.566  H    
     30 H          -2.034    -7.158    -0.860  H    
     31 H          -0.483    -5.539     0.138  H    
     32 H           0.637    -4.566    -0.807  H    
     33 H           0.983    -6.277    -0.523  H    
     34 H          -2.190    -5.097    -3.271  H    
     35 H          -1.234    -3.869    -2.427  H    
     36 H          -2.417    -4.819    -1.535  H    
     37 H           0.095    -8.089    -3.724  H    
     38 H           1.660    -8.167    -5.510  H    
     39 H           1.038    -4.017    -3.091  H    
     40 H           4.718    -4.403    -5.093  H    
     41 H           2.946    -4.614    -7.599  H    
     42 H           4.603    -5.231    -7.455  H    
     43 H           6.178    -3.482    -6.887  H    
     44 H           7.848    -2.313    -7.959  H    
     45 H           6.181     0.947    -7.706  H    
     46 H           7.053     3.023    -8.513  H    
     47 H          10.428     1.041   -10.047  H    
     48 H           9.197    -2.111    -9.294  H    
     49 H           8.664     4.070    -9.534  H    
@<TRIPOS>BOND
     1    1    2 1
     2    2    3 1
     3    2    4 1
     4    2    5 1
     5    5   10 ar
     6    5    6 ar
     7    6    7 ar
     8    7    8 ar
     9    8   14 1
    10    8    9 ar
    11    9   10 ar
    12    9   11 1
    13   11   12 1
    14   12   13 1
    15   12   15 1
    16   13   14 1
    17   15   16 2
    18   15   17 1
    19   17   18 1
    20   18   19 2
    21   19   20 1
    22   20   25 ar
    23   20   21 ar
    24   21   22 ar
    25   22   23 ar
    26   23   24 ar
    27   23   27 1
    28   24   25 ar
    29   25   26 1
    30    1   28 1
    31    1   29 1
    32    1   30 1
    33    3   31 1
    34    3   32 1
    35    3   33 1
    36    4   34 1
    37    4   35 1
    38    4   36 1
    39    6   37 1
    40    7   38 1
    41   10   39 1
    42   12   40 1
    43   13   41 1
    44   13   42 1
    45   17   43 1
    46   19   44 1
    47   21   45 1
    48   22   46 1
    49   24   47 1
    50   26   48 1
    51   27   49 1
@<TRIPOS>MOLECULE
ZINC01089089
 53 56 0 0 0
SMALL
NO_CHARGES


@<TRIPOS>ATOM
      1 C          -0.418    -3.940    -1.607  C    
      2 C          -1.581    -4.522    -1.069  C    
      3 C          -1.578    -5.124     0.215  C    
      4 C          -0.358    -5.121     0.941  C    
      5 C           0.806    -4.536     0.406  C    
      6 C           0.790    -3.935    -0.873  C    
      7 C           2.032    -3.332    -1.428  C    
      8 C           4.455    -3.696    -1.838  C    
      9 C           5.591    -4.746    -1.925  C    
     10 C           5.314    -5.802    -3.043  C    
     11 C           3.908    -6.432    -2.808  C    
     12 C           2.809    -5.347    -2.698  C    
     13 C           6.342    -6.838    -3.180  C    
     14 O           7.246    -6.947    -2.352  O    
     15 N           6.304    -7.646    -4.228  N    
     16 N           7.167    -8.557    -4.452  N    
     17 C           7.189    -9.316    -5.488  C    
     18 C           8.153   -10.307    -5.675  C    
     19 C           9.135   -10.609    -4.688  C    
     20 C          10.082   -11.635    -4.895  C    
     21 C          10.044   -12.367    -6.096  C    
     22 C           9.102   -12.079    -7.069  C    
     23 C           8.154   -11.059    -6.881  C    
     24 O           9.237   -12.874    -8.145  O    
     25 C          10.272   -13.776    -7.712  C    
     26 O          10.854   -13.374    -6.459  O    
     27 N          -2.703    -5.689     0.742  N    
     28 O          -3.757    -5.699     0.161  O    
     29 O          -2.717    -6.245     1.923  O    
     30 N           3.123    -4.342    -1.627  N    
     31 H          -0.458    -3.522    -2.543  H    
     32 H          -2.436    -4.499    -1.632  H    
     33 H          -0.301    -5.544     1.868  H    
     34 H           1.667    -4.541     0.964  H    
     35 H           1.831    -2.822    -2.374  H    
     36 H           2.348    -2.567    -0.713  H    
     37 H           4.681    -3.034    -0.997  H    
     38 H           4.442    -3.090    -2.751  H    
     39 H           6.535    -4.234    -2.123  H    
     40 H           5.671    -5.251    -0.958  H    
     41 H           5.293    -5.260    -3.996  H    
     42 H           3.651    -7.106    -3.630  H    
     43 H           3.920    -7.013    -1.882  H    
     44 H           2.695    -4.844    -3.665  H    
     45 H           1.869    -5.857    -2.473  H    
     46 H           5.583    -7.528    -4.870  H    
     47 H           6.482    -9.188    -6.186  H    
     48 H           9.167   -10.089    -3.804  H    
     49 H          10.778   -11.849    -4.182  H    
     50 H           7.472   -10.872    -7.624  H    
     51 H           9.851   -14.779    -7.602  H    
     52 H          11.056   -13.816    -8.471  H    
     53 H           3.197    -4.867    -0.751  H    
@<TRIPOS>BOND
     1    1    6 ar
     2    1    2 ar
     3    2    3 ar
     4    3    4 ar
     5    3   27 1
     6    4    5 ar
     7    5    6 ar
     8    6    7 1
     9    7   30 1
    10    8    9 1
    11    8   30 1
    12    9   10 1
    13   10   11 1
    14   10   13 1
    15   11   12 1
    16   12   30 1
    17   13   14 2
    18   13   15 1
    19   15   16 1
    20   16   17 2
    21   17   18 1
    22   18   23 ar
    23   18   19 ar
    24   19   20 ar
    25   20   21 ar
    26   21   26 1
    27   21   22 ar
    28   22   23 ar
    29   22   24 1
    30   24   25 1
    31   25   26 1
    32   27   28 2
    33   27   29 1
    34    1   31 1
    35    2   32 1
    36    4   33 1
    37    5   34 1
    38    7   35 1
    39    7   36 1
    40    8   37 1
    41    8   38 1
    42    9   39 1
    43    9   40 1
    44   10   41 1
    45   11   42 1
    46   11   43 1
    47   12   44 1
    48   12   45 1
    49   15   46 1
    50   17   47 1
    51   19   48 1
    52   20   49 1
    53   23   50 1
    54   25   51 1
    55   25   52 1
    56   30   53 1
@<TRIPOS>MOLECULE
ZINC01114434
 41 42 0 0 0
SMALL
NO_CHARGES


@<TRIPOS>ATOM
      1 C          -2.573    -8.868    -1.005  C    
      2 C          -1.559    -7.730    -0.693  C    
      3 C          -0.272    -8.315    -0.049  C    
      4 C          -1.218    -6.893    -1.844  C    
      5 O          -1.378    -7.329    -2.981  O    
      6 N          -0.701    -5.693    -1.627  N    
      7 C          -0.258    -4.779    -2.527  C    
      8 N           0.228    -3.606    -2.091  N    
      9 N           0.613    -2.849    -3.014  N    
     10 C           0.489    -3.336    -4.188  C    
     11 S          -0.205    -4.886    -4.257  S    
     12 S           0.845    -2.476    -5.622  S    
     13 C           2.476    -1.824    -5.176  C    
     14 C           3.061    -1.080    -6.281  C    
     15 O           2.505    -0.048    -6.635  O    
     16 N           4.217    -1.478    -6.799  N    
     17 C           5.000    -0.936    -7.790  C    
     18 C           4.557    -0.029    -8.782  C    
     19 C           5.446     0.468    -9.753  C    
     20 C           6.789     0.058    -9.758  C    
     21 C           7.267    -0.861    -8.794  C    
     22 C           6.353    -1.349    -7.826  C    
     23 C           8.684    -1.318    -8.760  C    
     24 F           9.254    -0.991    -7.555  F    
     25 F           8.740    -2.681    -8.912  F    
     26 F           9.488    -0.777    -9.738  F    
     27 H          -2.152    -9.591    -1.707  H    
     28 H          -3.485    -8.452    -1.437  H    
     29 H          -2.841    -9.392    -0.086  H    
     30 H          -2.041    -7.097     0.055  H    
     31 H          -0.528    -8.912     0.829  H    
     32 H           0.397    -7.513     0.274  H    
     33 H           0.260    -8.950    -0.762  H    
     34 H          -0.624    -5.426    -0.695  H    
     35 H           2.387    -1.158    -4.313  H    
     36 H           3.116    -2.663    -4.890  H    
     37 H           4.607    -2.259    -6.371  H    
     38 H           3.583     0.272    -8.825  H    
     39 H           5.111     1.127   -10.459  H    
     40 H           7.409     0.435   -10.477  H    
     41 H           6.689    -2.011    -7.117  H    
@<TRIPOS>BOND
     1    1    2 1
     2    2    3 1
     3    2    4 1
     4    4    5 2
     5    4    6 1
     6    6    7 1
     7    7   11 1
     8    7    8 2
     9    8    9 1
    10    9   10 2
    11   10   11 1
    12   10   12 1
    13   12   13 1
    14   13   14 1
    15   14   15 2
    16   14   16 1
    17   16   17 1
    18   17   22 ar
    19   17   18 ar
    20   18   19 ar
    21   19   20 ar
    22   20   21 ar
    23   21   22 ar
    24   21   23 1
    25   23   24 1
    26   23   25 1
    27   23   26 1
    28    1   27 1
    29    1   28 1
    30    1   29 1
    31    2   30 1
    32    3   31 1
    33    3   32 1
    34    3   33 1
    35    6   34 1
    36   13   35 1
    37   13   36 1
    38   16   37 1
    39   18   38 1
    40   19   39 1
    41   20   40 1
    42   22   41 1
@<TRIPOS>MOLECULE
ZINC01120067
 46 48 0 0 0
SMALL
NO_CHARGES


@<TRIPOS>ATOM
      1 C           4.662    -8.387    -8.930  C    
      2 C           4.032    -7.199    -9.355  C    
      3 C           3.610    -6.248    -8.407  C    
      4 C           3.808    -6.480    -7.028  C    
      5 C           4.437    -7.675    -6.609  C    
      6 C           4.860    -8.625    -7.557  C    
      7 S           3.421    -5.256    -5.850  S    
      8 O           2.387    -4.172    -6.396  O    
      9 O           2.723    -6.010    -4.634  O    
     10 N           4.850    -4.498    -5.330  N    
     11 C           5.003    -4.087    -3.958  C    
     12 C           4.309    -2.836    -3.716  C    
     13 O           3.342    -2.835    -2.964  O    
     14 N           4.795    -1.736    -4.283  N    
     15 C           4.375    -0.441    -4.198  C    
     16 C           3.046    -0.035    -3.921  C    
     17 C           2.719     1.332    -3.853  C    
     18 C           3.707     2.308    -4.069  C    
     19 C           5.027     1.916    -4.373  C    
     20 C           5.351     0.550    -4.449  C    
     21 F           5.959     2.806    -4.585  F    
     22 F           3.392     3.572    -3.978  F    
     23 C           5.780    -4.173    -6.281  C    
     24 C           5.482    -3.236    -7.296  C    
     25 C           6.423    -2.952    -8.297  C    
     26 C           7.667    -3.610    -8.303  C    
     27 C           8.005    -4.549    -7.295  C    
     28 C           7.043    -4.810    -6.286  C    
     29 N           9.210    -5.190    -7.315  N    
     30 O           9.533    -5.998    -6.486  O    
     31 O          10.095    -4.988    -8.258  O    
     32 H           4.986    -9.070    -9.622  H    
     33 H           3.892    -7.026   -10.352  H    
     34 H           3.174    -5.379    -8.728  H    
     35 H           4.604    -7.848    -5.614  H    
     36 H           5.321    -9.484    -7.249  H    
     37 H           4.629    -4.879    -3.299  H    
     38 H           6.058    -3.951    -3.702  H    
     39 H           5.618    -1.868    -4.785  H    
     40 H           2.305    -0.724    -3.787  H    
     41 H           1.757     1.616    -3.648  H    
     42 H           6.312     0.276    -4.668  H    
     43 H           4.579    -2.754    -7.303  H    
     44 H           6.200    -2.274    -9.028  H    
     45 H           8.324    -3.394    -9.057  H    
     46 H           7.252    -5.491    -5.548  H    
@<TRIPOS>BOND
     1    1    6 ar
     2    1    2 ar
     3    2    3 ar
     4    3    4 ar
     5    4    5 ar
     6    4    7 1
     7    5    6 ar
     8    7    8 2
     9    7    9 2
    10    7   10 1
    11   10   11 1
    12   10   23 1
    13   11   12 1
    14   12   13 2
    15   12   14 1
    16   14   15 1
    17   15   20 ar
    18   15   16 ar
    19   16   17 ar
    20   17   18 ar
    21   18   19 ar
    22   18   22 1
    23   19   20 ar
    24   19   21 1
    25   23   28 ar
    26   23   24 ar
    27   24   25 ar
    28   25   26 ar
    29   26   27 ar
    30   27   28 ar
    31   27   29 1
    32   29   30 2
    33   29   31 1
    34    1   32 1
    35    2   33 1
    36    3   34 1
    37    5   35 1
    38    6   36 1
    39   11   37 1
    40   11   38 1
    41   14   39 1
    42   16   40 1
    43   17   41 1
    44   20   42 1
    45   24   43 1
    46   25   44 1
    47   26   45 1
    48   28   46 1
@<TRIPOS>MOLECULE
ZINC01120897
 48 49 0 0 0
SMALL
NO_CHARGES


@<TRIPOS>ATOM
      1 C           2.212    -8.170    -5.095  C    
      2 C           1.835    -6.822    -4.702  C    
      3 O           0.951    -6.719    -3.863  O    
      4 C           2.507    -5.642    -5.251  C    
      5 C           2.225    -4.387    -4.548  C    
      6 O           1.105    -3.893    -4.638  O    
      7 N           3.238    -3.733    -3.988  N    
      8 C           3.280    -2.495    -3.413  C    
      9 C           2.181    -1.851    -2.794  C    
     10 C           2.328    -0.579    -2.209  C    
     11 C           3.578     0.061    -2.225  C    
     12 C           4.684    -0.575    -2.814  C    
     13 C           4.538    -1.847    -3.399  C    
     14 S           2.120    -5.498    -7.027  S    
     15 C           2.922    -4.034    -7.388  C    
     16 N           4.218    -3.905    -7.199  N    
     17 C           4.874    -2.736    -7.448  C    
     18 N           4.120    -1.698    -7.907  N    
     19 C           2.776    -1.808    -8.116  C    
     20 N           2.213    -3.017    -7.832  N    
     21 N           2.030    -0.754    -8.576  N    
     22 C           2.670     0.502    -8.901  C    
     23 C           0.604    -0.904    -8.761  C    
     24 N           6.220    -2.609    -7.229  N    
     25 C           6.978    -3.728    -6.720  C    
     26 C           6.882    -1.354    -7.502  C    
     27 H           2.531    -8.737    -4.220  H    
     28 H           3.032    -8.169    -5.812  H    
     29 H           1.359    -8.672    -5.549  H    
     30 H           3.582    -5.845    -5.179  H    
     31 H           4.103    -4.167    -4.078  H    
     32 H           1.271    -2.306    -2.739  H    
     33 H           1.530    -0.128    -1.763  H    
     34 H           3.685     0.983    -1.798  H    
     35 H           5.598    -0.118    -2.813  H    
     36 H           5.354    -2.294    -3.825  H    
     37 H           3.169     0.907    -8.017  H    
     38 H           1.977     1.267    -9.261  H    
     39 H           3.414     0.345    -9.684  H    
     40 H           0.408    -1.700    -9.483  H    
     41 H           0.113    -0.002    -9.130  H    
     42 H           0.133    -1.166    -7.811  H    
     43 H           6.572    -4.038    -5.753  H    
     44 H           8.037    -3.503    -6.572  H    
     45 H           6.914    -4.567    -7.416  H    
     46 H           6.769    -1.093    -8.557  H    
     47 H           7.951    -1.368    -7.283  H    
     48 H           6.438    -0.561    -6.894  H    
@<TRIPOS>BOND
     1    1    2 1
     2    2    3 2
     3    2    4 1
     4    4    5 1
     5    4   14 1
     6    5    6 2
     7    5    7 1
     8    7    8 1
     9    8   13 ar
    10    8    9 ar
    11    9   10 ar
    12   10   11 ar
    13   11   12 ar
    14   12   13 ar
    15   14   15 1
    16   15   20 ar
    17   15   16 ar
    18   16   17 ar
    19   17   18 ar
    20   17   24 1
    21   18   19 ar
    22   19   20 ar
    23   19   21 1
    24   21   22 1
    25   21   23 1
    26   24   25 1
    27   24   26 1
    28    1   27 1
    29    1   28 1
    30    1   29 1
    31    4   30 1
    32    7   31 1
    33    9   32 1
    34   10   33 1
    35   11   34 1
    36   12   35 1
    37   13   36 1
    38   22   37 1
    39   22   38 1
    40   22   39 1
    41   23   40 1
    42   23   41 1
    43   23   42 1
    44   25   43 1
    45   25   44 1
    46   25   45 1
    47   26   46 1
    48   26   47 1
    49   26   48 1
@<TRIPOS>MOLECULE
ZINC01123508
 45 47 0 0 0
SMALL
NO_CHARGES


@<TRIPOS>ATOM
      1 C           7.231    -2.749     1.468  C    
      2 C           7.477    -3.591     0.455  C    
      3 C           8.174    -3.218    -0.768  C    
      4 N           7.404    -3.578    -1.948  N    
      5 C           7.756    -4.565    -2.764  C    
      6 O           8.824    -5.161    -2.678  O    
      7 C           6.819    -4.937    -3.796  C    
      8 S           5.402    -3.843    -3.589  S    
      9 C           6.208    -3.034    -2.298  C    
     10 N           5.514    -1.980    -1.815  N    
     11 C           5.777    -0.933    -1.002  C    
     12 C           6.875    -0.072    -1.230  C    
     13 C           7.080     1.055    -0.413  C    
     14 C           6.165     1.350     0.616  C    
     15 C           5.044     0.520     0.820  C    
     16 C           4.844    -0.607     0.003  C    
     17 F           6.345     2.401     1.373  F    
     18 C           6.339    -6.420    -3.710  C    
     19 C           7.278    -7.458    -4.113  C    
     20 O           8.321    -7.158    -4.680  O    
     21 N           6.910    -8.717    -3.907  N    
     22 C           7.533    -9.909    -4.174  C    
     23 C           8.880   -10.075    -4.579  C    
     24 C           9.409   -11.358    -4.813  C    
     25 C           8.604   -12.499    -4.635  C    
     26 C           7.267   -12.354    -4.221  C    
     27 C           6.742   -11.069    -3.990  C    
     28 F           9.100   -13.690    -4.845  F    
     29 H           6.740    -3.080     2.271  H    
     30 H           7.526    -1.796     1.437  H    
     31 H           7.188    -4.539     0.553  H    
     32 H           8.433    -2.158    -0.798  H    
     33 H           9.134    -3.747    -0.732  H    
     34 H           7.255    -4.732    -4.777  H    
     35 H           7.521    -0.253    -2.004  H    
     36 H           7.882     1.666    -0.577  H    
     37 H           4.366     0.741     1.557  H    
     38 H           4.023    -1.198     0.156  H    
     39 H           6.024    -6.617    -2.677  H    
     40 H           5.458    -6.537    -4.344  H    
     41 H           6.031    -8.807    -3.502  H    
     42 H           9.496    -9.276    -4.699  H    
     43 H          10.384   -11.462    -5.107  H    
     44 H           6.677   -13.179    -4.086  H    
     45 H           5.765   -10.986    -3.691  H    
@<TRIPOS>BOND
     1    1    2 2
     2    2    3 1
     3    3    4 1
     4    4    9 1
     5    4    5 1
     6    5    6 2
     7    5    7 1
     8    7    8 1
     9    7   18 1
    10    8    9 1
    11    9   10 2
    12   10   11 1
    13   11   16 ar
    14   11   12 ar
    15   12   13 ar
    16   13   14 ar
    17   14   15 ar
    18   14   17 1
    19   15   16 ar
    20   18   19 1
    21   19   20 2
    22   19   21 1
    23   21   22 1
    24   22   27 ar
    25   22   23 ar
    26   23   24 ar
    27   24   25 ar
    28   25   26 ar
    29   25   28 1
    30   26   27 ar
    31    1   29 1
    32    1   30 1
    33    2   31 1
    34    3   32 1
    35    3   33 1
    36    7   34 1
    37   12   35 1
    38   13   36 1
    39   15   37 1
    40   16   38 1
    41   18   39 1
    42   18   40 1
    43   21   41 1
    44   23   42 1
    45   24   43 1
    46   26   44 1
    47   27   45 1
@<TRIPOS>MOLECULE
ZINC01137831
 57 59 0 0 0
SMALL
NO_CHARGES


@<TRIPOS>ATOM
      1 C          -0.745    -8.627     1.662  C    
      2 O          -0.357    -7.480     0.881  O    
      3 C          -1.384    -6.673     0.454  C    
      4 C          -2.196    -5.957     1.364  C    
      5 C          -3.222    -5.117     0.892  C    
      6 C          -3.438    -4.979    -0.490  C    
      7 C          -2.609    -5.655    -1.404  C    
      8 C          -1.568    -6.494    -0.940  C    
      9 N          -0.704    -7.050    -1.839  N    
     10 C           0.594    -6.470    -2.069  C    
     11 C           0.779    -6.061    -3.444  C    
     12 O           0.003    -5.245    -3.925  O    
     13 N           1.799    -6.546    -4.140  N    
     14 C           2.123    -6.274    -5.515  C    
     15 C           2.576    -7.613    -6.160  C    
     16 C           2.681    -7.578    -7.709  C    
     17 C           3.994    -7.005    -8.306  C    
     18 C           4.673    -5.803    -7.592  C    
     19 C           3.720    -4.754    -6.960  C    
     20 C           3.192    -5.145    -5.550  C    
     21 S          -1.182    -8.488    -2.596  S    
     22 O           0.044    -9.120    -3.397  O    
     23 O          -1.536    -9.569    -1.484  O    
     24 C          -2.493    -8.242    -3.715  C    
     25 C          -2.239    -7.684    -4.986  C    
     26 C          -3.299    -7.459    -5.883  C    
     27 C          -4.616    -7.796    -5.519  C    
     28 C          -4.877    -8.342    -4.247  C    
     29 C          -3.818    -8.563    -3.346  C    
     30 H          -0.958    -8.329     2.691  H    
     31 H           0.092    -9.327     1.676  H    
     32 H          -1.613    -9.145     1.247  H    
     33 H          -2.029    -6.038     2.366  H    
     34 H          -3.802    -4.598     1.555  H    
     35 H          -4.183    -4.363    -0.825  H    
     36 H          -2.757    -5.514    -2.406  H    
     37 H           0.744    -5.579    -1.449  H    
     38 H           1.355    -7.194    -1.768  H    
     39 H           2.400    -7.155    -3.676  H    
     40 H           1.231    -5.918    -6.043  H    
     41 H           3.534    -7.929    -5.732  H    
     42 H           1.838    -8.379    -5.902  H    
     43 H           2.574    -8.605    -8.073  H    
     44 H           1.832    -7.018    -8.110  H    
     45 H           4.731    -7.815    -8.359  H    
     46 H           3.777    -6.714    -9.337  H    
     47 H           5.348    -6.186    -6.821  H    
     48 H           5.296    -5.294    -8.328  H    
     49 H           4.278    -3.818    -6.854  H    
     50 H           2.882    -4.556    -7.634  H    
     51 H           2.749    -4.247    -5.107  H    
     52 H           4.041    -5.427    -4.918  H    
     53 H          -1.288    -7.443    -5.262  H    
     54 H          -3.107    -7.059    -6.801  H    
     55 H          -5.382    -7.638    -6.178  H    
     56 H          -5.835    -8.570    -3.978  H    
     57 H          -4.028    -8.954    -2.425  H    
@<TRIPOS>BOND
     1    1    2 1
     2    2    3 1
     3    3    8 ar
     4    3    4 ar
     5    4    5 ar
     6    5    6 ar
     7    6    7 ar
     8    7    8 ar
     9    8    9 1
    10    9   10 1
    11    9   21 1
    12   10   11 1
    13   11   12 2
    14   11   13 1
    15   13   14 1
    16   14   20 1
    17   14   15 1
    18   15   16 1
    19   16   17 1
    20   17   18 1
    21   18   19 1
    22   19   20 1
    23   21   22 2
    24   21   23 2
    25   21   24 1
    26   24   29 ar
    27   24   25 ar
    28   25   26 ar
    29   26   27 ar
    30   27   28 ar
    31   28   29 ar
    32    1   30 1
    33    1   31 1
    34    1   32 1
    35    4   33 1
    36    5   34 1
    37    6   35 1
    38    7   36 1
    39   10   37 1
    40   10   38 1
    41   13   39 1
    42   14   40 1
    43   15   41 1
    44   15   42 1
    45   16   43 1
    46   16   44 1
    47   17   45 1
    48   17   46 1
    49   18   47 1
    50   18   48 1
    51   19   49 1
    52   19   50 1
    53   20   51 1
    54   20   52 1
    55   25   53 1
    56   26   54 1
    57   27   55 1
    58   28   56 1
    59   29   57 1
@<TRIPOS>MOLECULE
ZINC01155887
 52 54 0 0 0
SMALL
NO_CHARGES


@<TRIPOS>ATOM
      1 C          -4.509    -1.149     1.712  C    
      2 C          -3.249    -1.113     0.818  C    
      3 C          -3.099    -2.370    -0.092  C    
      4 C          -1.951    -2.502    -1.010  C    
      5 C          -1.015    -1.523    -1.106  C    
      6 C           0.068    -1.628    -1.956  C    
      7 O           0.995    -0.649    -2.027  O    
      8 O           0.212    -2.739    -2.727  O    
      9 C          -0.695    -3.762    -2.691  C    
     10 C          -1.819    -3.671    -1.820  C    
     11 C          -2.728    -4.763    -1.826  C    
     12 C          -2.517    -5.895    -2.642  C    
     13 C          -1.380    -5.967    -3.475  C    
     14 C          -0.483    -4.883    -3.513  C    
     15 O          -1.162    -7.048    -4.287  O    
     16 C          -0.267    -8.042    -3.735  C    
     17 C          -0.020    -9.186    -4.650  C    
     18 C          -0.728    -9.357    -5.864  C    
     19 C          -0.429   -10.419    -6.739  C    
     20 C           0.536   -11.377    -6.370  C    
     21 C           1.243   -11.243    -5.153  C    
     22 C           0.965   -10.141    -4.313  C    
     23 O           2.235   -12.152    -4.888  O    
     24 C           2.139   -12.858    -3.632  C    
     25 O           0.854   -12.383    -7.245  O    
     26 C           0.088   -13.582    -7.044  C    
     27 O          -1.099   -10.560    -7.926  O    
     28 C          -0.664    -9.638    -8.945  C    
     29 Cl         -3.647    -7.160    -2.613  Cl   
     30 H          -5.409    -1.213     1.098  H    
     31 H          -4.566    -0.238     2.309  H    
     32 H          -4.474    -2.008     2.387  H    
     33 H          -3.308    -0.217     0.192  H    
     34 H          -2.372    -1.028     1.470  H    
     35 H          -3.078    -3.235     0.577  H    
     36 H          -4.008    -2.434    -0.697  H    
     37 H          -1.078    -0.691    -0.572  H    
     38 H          -3.559    -4.754    -1.227  H    
     39 H           0.335    -4.916    -4.131  H    
     40 H           0.695    -7.567    -3.508  H    
     41 H          -0.690    -8.442    -2.808  H    
     42 H          -1.454    -8.688    -6.141  H    
     43 H           1.498   -10.028    -3.448  H    
     44 H           2.444   -12.206    -2.807  H    
     45 H           2.828   -13.709    -3.666  H    
     46 H           1.126   -13.237    -3.446  H    
     47 H           0.269   -14.021    -6.060  H    
     48 H           0.392   -14.301    -7.803  H    
     49 H          -0.985   -13.401    -7.161  H    
     50 H          -0.955    -8.614    -8.690  H    
     51 H          -1.155    -9.904    -9.882  H    
     52 H           0.420    -9.682    -9.093  H    
@<TRIPOS>BOND
     1    1    2 1
     2    2    3 1
     3    3    4 1
     4    4   10 1
     5    4    5 2
     6    5    6 1
     7    6    7 2
     8    6    8 1
     9    8    9 1
    10    9   14 ar
    11    9   10 ar
    12   10   11 ar
    13   11   12 ar
    14   12   13 ar
    15   12   29 1
    16   13   14 ar
    17   13   15 1
    18   15   16 1
    19   16   17 1
    20   17   22 ar
    21   17   18 ar
    22   18   19 ar
    23   19   20 ar
    24   19   27 1
    25   20   21 ar
    26   20   25 1
    27   21   22 ar
    28   21   23 1
    29   23   24 1
    30   25   26 1
    31   27   28 1
    32    1   30 1
    33    1   31 1
    34    1   32 1
    35    2   33 1
    36    2   34 1
    37    3   35 1
    38    3   36 1
    39    5   37 1
    40   11   38 1
    41   14   39 1
    42   16   40 1
    43   16   41 1
    44   18   42 1
    45   22   43 1
    46   24   44 1
    47   24   45 1
    48   24   46 1
    49   26   47 1
    50   26   48 1
    51   26   49 1
    52   28   50 1
    53   28   51 1
    54   28   52 1
@<TRIPOS>MOLECULE
ZINC01170305
 45 46 0 0 0
SMALL
NO_CHARGES


@<TRIPOS>ATOM
      1 C          -1.439    -6.952    -5.088  C    
      2 O          -0.421    -7.070    -6.100  O    
      3 C           0.856    -6.820    -5.657  C    
      4 C           1.560    -7.784    -4.905  C    
      5 C           2.892    -7.552    -4.516  C    
      6 C           3.554    -6.367    -4.900  C    
      7 C           2.853    -5.410    -5.667  C    
      8 C           1.511    -5.630    -6.041  C    
      9 Cl          0.715    -4.447    -6.959  Cl   
     10 N           4.857    -6.158    -4.541  N    
     11 C           5.195    -5.258    -3.467  C    
     12 C           5.053    -3.865    -3.848  C    
     13 O           5.779    -3.451    -4.743  O    
     14 N           4.093    -3.127    -3.298  N    
     15 C           3.724    -1.828    -3.534  C    
     16 C           4.523    -0.839    -4.155  C    
     17 C           4.034     0.466    -4.355  C    
     18 C           2.732     0.841    -3.938  C    
     19 C           1.950    -0.150    -3.292  C    
     20 C           2.439    -1.454    -3.090  C    
     21 C           2.229     2.132    -4.150  C    
     22 O           1.120     2.462    -3.749  O    
     23 N           2.887     3.077    -4.791  N    
     24 S           6.063    -7.115    -5.251  S    
     25 O           6.754    -8.044    -4.156  O    
     26 O           5.436    -8.119    -6.316  O    
     27 C           7.299    -6.156    -6.144  C    
     28 H          -1.380    -7.782    -4.376  H    
     29 H          -2.409    -6.999    -5.583  H    
     30 H          -1.373    -5.999    -4.547  H    
     31 H           1.106    -8.659    -4.635  H    
     32 H           3.379    -8.259    -3.963  H    
     33 H           3.326    -4.557    -5.971  H    
     34 H           4.567    -5.492    -2.602  H    
     35 H           6.227    -5.402    -3.138  H    
     36 H           3.530    -3.600    -2.667  H    
     37 H           5.476    -1.045    -4.452  H    
     38 H           4.653     1.141    -4.810  H    
     39 H           1.006     0.063    -2.962  H    
     40 H           1.838    -2.141    -2.626  H    
     41 H           2.476     3.947    -4.919  H    
     42 H           3.774     2.912    -5.148  H    
     43 H           6.805    -5.555    -6.906  H    
     44 H           8.013    -6.831    -6.617  H    
     45 H           7.826    -5.500    -5.449  H    
@<TRIPOS>BOND
     1    1    2 1
     2    2    3 1
     3    3    8 ar
     4    3    4 ar
     5    4    5 ar
     6    5    6 ar
     7    6    7 ar
     8    6   10 1
     9    7    8 ar
    10    8    9 1
    11   10   11 1
    12   10   24 1
    13   11   12 1
    14   12   13 2
    15   12   14 1
    16   14   15 1
    17   15   20 ar
    18   15   16 ar
    19   16   17 ar
    20   17   18 ar
    21   18   19 ar
    22   18   21 1
    23   19   20 ar
    24   21   22 2
    25   21   23 1
    26   24   25 2
    27   24   26 2
    28   24   27 1
    29    1   28 1
    30    1   29 1
    31    1   30 1
    32    4   31 1
    33    5   32 1
    34    7   33 1
    35   11   34 1
    36   11   35 1
    37   14   36 1
    38   16   37 1
    39   17   38 1
    40   19   39 1
    41   20   40 1
    42   23   41 1
    43   23   42 1
    44   27   43 1
    45   27   44 1
    46   27   45 1
@<TRIPOS>MOLECULE
ZINC01175668
 47 49 0 0 0
SMALL
NO_CHARGES


@<TRIPOS>ATOM
      1 C           1.204    -7.797     1.918  C    
      2 C           1.238    -6.765     0.961  C    
      3 C           2.439    -6.475     0.284  C    
      4 C           3.618    -7.215     0.548  C    
      5 C           3.570    -8.240     1.526  C    
      6 C           2.370    -8.531     2.203  C    
      7 C           4.868    -6.929    -0.207  C    
      8 N           4.689    -7.142    -1.625  N    
      9 C           4.611    -6.039    -2.551  C    
     10 C           5.855    -5.873    -3.282  C    
     11 O           6.848    -5.570    -2.640  O    
     12 N           5.864    -6.094    -4.593  N    
     13 C           6.873    -6.074    -5.524  C    
     14 C           8.222    -5.702    -5.273  C    
     15 C           9.183    -5.721    -6.301  C    
     16 C           8.819    -6.107    -7.601  C    
     17 C           7.489    -6.476    -7.874  C    
     18 C           6.528    -6.461    -6.844  C    
     19 F           5.306    -6.818    -7.147  F    
     20 Br         10.088    -6.128    -8.961  Br   
     21 S           4.575    -8.724    -2.236  S    
     22 O           5.810    -9.032    -3.191  O    
     23 O           4.718    -9.792    -1.065  O    
     24 C           3.044    -9.050    -3.001  C    
     25 C           1.864    -9.023    -2.228  C    
     26 C           0.616    -9.261    -2.837  C    
     27 C           0.541    -9.531    -4.218  C    
     28 C           1.719    -9.570    -4.990  C    
     29 C           2.967    -9.325    -4.385  C    
     30 F          -0.615    -9.766    -4.780  F    
     31 H           0.332    -8.011     2.407  H    
     32 H           0.392    -6.228     0.757  H    
     33 H           2.446    -5.719    -0.403  H    
     34 H           4.404    -8.790     1.740  H    
     35 H           2.343    -9.282     2.900  H    
     36 H           5.169    -5.897     0.004  H    
     37 H           5.693    -7.557     0.141  H    
     38 H           3.773    -6.207    -3.235  H    
     39 H           4.386    -5.100    -2.033  H    
     40 H           4.997    -6.343    -4.955  H    
     41 H           8.529    -5.410    -4.347  H    
     42 H          10.152    -5.453    -6.100  H    
     43 H           7.224    -6.756    -8.823  H    
     44 H           1.904    -8.828    -1.225  H    
     45 H          -0.236    -9.242    -2.271  H    
     46 H           1.671    -9.777    -5.994  H    
     47 H           3.811    -9.348    -4.963  H    
@<TRIPOS>BOND
     1    1    6 ar
     2    1    2 ar
     3    2    3 ar
     4    3    4 ar
     5    4    5 ar
     6    4    7 1
     7    5    6 ar
     8    7    8 1
     9    8    9 1
    10    8   21 1
    11    9   10 1
    12   10   11 2
    13   10   12 1
    14   12   13 1
    15   13   18 ar
    16   13   14 ar
    17   14   15 ar
    18   15   16 ar
    19   16   17 ar
    20   16   20 1
    21   17   18 ar
    22   18   19 1
    23   21   22 2
    24   21   23 2
    25   21   24 1
    26   24   29 ar
    27   24   25 ar
    28   25   26 ar
    29   26   27 ar
    30   27   28 ar
    31   27   30 1
    32   28   29 ar
    33    1   31 1
    34    2   32 1
    35    3   33 1
    36    5   34 1
    37    6   35 1
    38    7   36 1
    39    7   37 1
    40    9   38 1
    41    9   39 1
    42   12   40 1
    43   14   41 1
    44   15   42 1
    45   17   43 1
    46   25   44 1
    47   26   45 1
    48   28   46 1
    49   29   47 1
@<TRIPOS>MOLECULE
ZINC01186354
 44 45 0 0 0
SMALL
NO_CHARGES


@<TRIPOS>ATOM
      1 C           5.287     4.022    -1.984  C    
      2 C           4.557     2.809    -2.592  C    
      3 O           4.909     2.699    -3.985  O    
      4 C           4.592     1.508    -4.589  C    
      5 C           3.255     1.092    -4.734  C    
      6 C           2.932    -0.123    -5.381  C    
      7 C           3.980    -0.863    -5.976  C    
      8 C           5.331    -0.454    -5.876  C    
      9 C           5.631     0.726    -5.143  C    
     10 O           6.924     1.174    -5.042  O    
     11 C           7.591     0.783    -3.828  C    
     12 C           8.964     1.300    -3.865  C    
     13 O           9.817     0.902    -4.833  O    
     14 C           6.398    -1.252    -6.551  C    
     15 C           6.923    -0.562    -7.716  C    
     16 C           6.789    -1.005    -8.972  C    
     17 C           1.614    -0.553    -5.530  C    
     18 C           0.644    -0.588    -4.597  C    
     19 C           0.732    -0.415    -3.255  C    
     20 O           1.794    -0.287    -2.652  O    
     21 N          -0.424    -0.535    -2.616  N    
     22 C          -1.415    -0.810    -3.448  C    
     23 O          -2.584    -0.996    -3.128  O    
     24 S          -0.949    -0.990    -5.075  S    
     25 C          -0.562    -0.410    -1.183  C    
     26 O           9.406     2.165    -2.924  O    
     27 H           6.370     3.844    -1.990  H    
     28 H           4.958     4.174    -0.950  H    
     29 H           5.072     4.929    -2.564  H    
     30 H           4.840     1.913    -2.029  H    
     31 H           3.479     2.962    -2.490  H    
     32 H           2.510     1.690    -4.371  H    
     33 H           3.754    -1.719    -6.494  H    
     34 H           7.077     1.189    -2.954  H    
     35 H           7.637    -0.304    -3.731  H    
     36 H           7.215    -1.438    -5.856  H    
     37 H           6.016    -2.238    -6.830  H    
     38 H           7.412     0.292    -7.576  H    
     39 H           7.172    -0.487    -9.726  H    
     40 H           6.309    -1.849    -9.172  H    
     41 H           1.385    -0.918    -6.428  H    
     42 H           0.063    -1.158    -0.681  H    
     43 H          -1.593    -0.550    -0.836  H    
     44 H          -0.238     0.583    -0.870  H    
@<TRIPOS>BOND
     1    1    2 1
     2    2    3 1
     3    3    4 1
     4    4    9 ar
     5    4    5 ar
     6    5    6 ar
     7    6    7 ar
     8    6   17 1
     9    7    8 ar
    10    8    9 ar
    11    8   14 1
    12    9   10 1
    13   10   11 1
    14   11   12 1
    15   12   13 2
    16   12   26 1
    17   14   15 1
    18   15   16 2
    19   17   18 2
    20   18   24 1
    21   18   19 1
    22   19   20 2
    23   19   21 1
    24   21   22 1
    25   21   25 1
    26   22   23 2
    27   22   24 1
    28    1   27 1
    29    1   28 1
    30    1   29 1
    31    2   30 1
    32    2   31 1
    33    5   32 1
    34    7   33 1
    35   11   34 1
    36   11   35 1
    37   14   36 1
    38   14   37 1
    39   15   38 1
    40   16   39 1
    41   16   40 1
    42   17   41 1
    43   25   42 1
    44   25   43 1
    45   25   44 1
@<TRIPOS>MOLECULE
ZINC01208998
 43 45 0 0 0
SMALL
NO_CHARGES


@<TRIPOS>ATOM
      1 C          -2.887   -11.917    -6.624  C    
      2 C          -1.951   -10.774    -7.070  C    
      3 O          -1.818    -9.820    -6.010  O    
      4 C          -1.132    -8.643    -6.075  C    
      5 O          -0.523    -8.255    -7.217  O    
      6 C          -1.088    -7.757    -4.900  C    
      7 N           0.267    -7.447    -4.512  N    
      8 C           1.178    -8.328    -4.026  C    
      9 C           1.101    -9.712    -3.765  C    
     10 C           2.236   -10.379    -3.256  C    
     11 C           3.433    -9.668    -3.015  C    
     12 C           3.502    -8.281    -3.273  C    
     13 C           2.360    -7.626    -3.780  C    
     14 C           2.131    -6.324    -4.118  C    
     15 N           3.022    -5.403    -3.996  N    
     16 N           2.898    -4.171    -4.289  N    
     17 C           3.838    -3.254    -4.098  C    
     18 O           4.894    -3.601    -3.578  O    
     19 C           3.638    -1.909    -4.452  C    
     20 C           2.540    -1.497    -5.254  C    
     21 C           2.354    -0.147    -5.607  C    
     22 C           3.259     0.831    -5.162  C    
     23 C           4.355     0.452    -4.368  C    
     24 C           4.542    -0.899    -4.023  C    
     25 Br          3.014     2.614    -5.633  Br   
     26 C           0.851    -6.254    -4.555  C    
     27 O           0.306    -5.229    -4.946  O    
     28 H          -2.460   -12.435    -5.754  H    
     29 H          -3.019   -12.638    -7.438  H    
     30 H          -3.865   -11.510    -6.354  H    
     31 H          -0.969   -11.183    -7.326  H    
     32 H          -2.379   -10.285    -7.954  H    
     33 H          -1.646    -6.852    -5.158  H    
     34 H          -1.602    -8.224    -4.054  H    
     35 H           0.238   -10.228    -3.942  H    
     36 H           2.188   -11.381    -3.059  H    
     37 H           4.253   -10.159    -2.649  H    
     38 H           4.367    -7.764    -3.093  H    
     39 H           2.054    -3.885    -4.665  H    
     40 H           1.864    -2.174    -5.612  H    
     41 H           1.562     0.125    -6.194  H    
     42 H           5.017     1.156    -4.039  H    
     43 H           5.346    -1.130    -3.434  H    
@<TRIPOS>BOND
     1    1    2 1
     2    2    3 1
     3    3    4 1
     4    4    5 2
     5    4    6 1
     6    6    7 1
     7    7   26 1
     8    7    8 1
     9    8   13 ar
    10    8    9 ar
    11    9   10 ar
    12   10   11 ar
    13   11   12 ar
    14   12   13 ar
    15   13   14 1
    16   14   15 2
    17   14   26 1
    18   15   16 1
    19   16   17 1
    20   17   18 2
    21   17   19 1
    22   19   24 ar
    23   19   20 ar
    24   20   21 ar
    25   21   22 ar
    26   22   23 ar
    27   22   25 1
    28   23   24 ar
    29   26   27 2
    30    1   28 1
    31    1   29 1
    32    1   30 1
    33    2   31 1
    34    2   32 1
    35    6   33 1
    36    6   34 1
    37    9   35 1
    38   10   36 1
    39   11   37 1
    40   12   38 1
    41   16   39 1
    42   20   40 1
    43   21   41 1
    44   23   42 1
    45   24   43 1
@<TRIPOS>MOLECULE
ZINC01218734
 44 45 0 0 0
SMALL
NO_CHARGES


@<TRIPOS>ATOM
      1 C          10.963    -3.996     1.108  C    
      2 C          10.058    -2.817     1.549  C    
      3 O           8.673    -3.049     1.263  O    
      4 C           8.041    -3.065     0.059  C    
      5 O           8.788    -2.788    -1.037  O    
      6 C           6.641    -3.358    -0.063  C    
      7 C           5.821    -3.845     1.000  C    
      8 C           4.482    -4.049     0.613  C    
      9 S           4.294    -3.733    -1.057  S    
     10 C           5.912    -3.185    -1.261  C    
     11 N           6.391    -2.580    -2.373  N    
     12 C           5.872    -2.500    -3.587  C    
     13 O           4.744    -2.950    -3.833  O    
     14 C           6.597    -1.910    -4.593  C    
     15 C           5.971    -1.475    -5.711  C    
     16 C           6.630    -1.042    -6.877  C    
     17 C           6.694    -1.899    -8.013  C    
     18 C           7.357    -1.480    -9.193  C    
     19 C           7.970    -0.193    -9.252  C    
     20 C           7.917     0.670    -8.130  C    
     21 C           7.261     0.247    -6.946  C    
     22 O           7.234     1.099    -5.881  O    
     23 C           7.872    -2.188    -4.624  C    
     24 N           8.991    -2.432    -4.638  N    
     25 C           3.350    -4.431     1.452  C    
     26 C           6.298    -4.125     2.390  C    
     27 H          10.671    -4.914     1.618  H    
     28 H          12.006    -3.783     1.347  H    
     29 H          10.882    -4.153     0.034  H    
     30 H          10.157    -2.673     2.631  H    
     31 H          10.370    -1.903     1.042  H    
     32 H           7.250    -2.153    -2.266  H    
     33 H           4.984    -1.436    -5.728  H    
     34 H           6.259    -2.823    -7.970  H    
     35 H           7.394    -2.099   -10.003  H    
     36 H           8.447     0.105   -10.103  H    
     37 H           8.350     1.597    -8.172  H    
     38 H           6.738     0.643    -5.152  H    
     39 H           3.542    -5.400     1.902  H    
     40 H           2.441    -4.490     0.864  H    
     41 H           3.207    -3.694     2.243  H    
     42 H           7.078    -4.887     2.385  H    
     43 H           5.484    -4.485     3.014  H    
     44 H           6.696    -3.221     2.851  H    
@<TRIPOS>BOND
     1    1    2 1
     2    2    3 1
     3    3    4 1
     4    4    5 2
     5    4    6 1
     6    6   10 2
     7    6    7 1
     8    7    8 2
     9    7   26 1
    10    8    9 1
    11    8   25 1
    12    9   10 1
    13   10   11 1
    14   11   12 1
    15   12   13 2
    16   12   14 1
    17   14   15 2
    18   14   23 1
    19   15   16 1
    20   16   21 ar
    21   16   17 ar
    22   17   18 ar
    23   18   19 ar
    24   19   20 ar
    25   20   21 ar
    26   21   22 1
    27   23   24 3
    28    1   27 1
    29    1   28 1
    30    1   29 1
    31    2   30 1
    32    2   31 1
    33   11   32 1
    34   15   33 1
    35   17   34 1
    36   18   35 1
    37   19   36 1
    38   20   37 1
    39   22   38 1
    40   25   39 1
    41   25   40 1
    42   25   41 1
    43   26   42 1
    44   26   43 1
    45   26   44 1
@<TRIPOS>MOLECULE
ZINC01252277
 54 57 0 0 0
SMALL
NO_CHARGES


@<TRIPOS>ATOM
      1 C           2.975    -0.223    -5.240  C    
      2 C           3.106    -0.372    -6.768  C    
      3 O           4.281    -1.126    -7.075  O    
      4 C           4.718    -1.510    -8.308  C    
      5 O           3.979    -1.157    -9.389  O    
      6 C           5.902    -2.284    -8.449  C    
      7 C           6.696    -2.305    -9.633  C    
      8 C           7.802    -3.167    -9.571  C    
      9 S           7.827    -3.872    -8.011  S    
     10 C           6.405    -3.105    -7.413  C    
     11 N           5.845    -3.274    -6.176  N    
     12 C           6.244    -4.026    -5.159  C    
     13 O           7.254    -4.718    -5.211  O    
     14 C           5.451    -3.988    -3.939  C    
     15 N           5.883    -4.924    -2.916  N    
     16 C           5.494    -6.188    -2.846  C    
     17 O           4.763    -6.694    -3.689  O    
     18 C           6.060    -6.885    -1.833  C    
     19 C           5.862    -8.168    -1.466  C    
     20 C           4.916    -9.037    -1.992  C    
     21 C           5.379   -10.210    -2.642  C    
     22 C           4.469   -11.131    -3.193  C    
     23 C           3.088   -10.905    -3.084  C    
     24 C           2.611    -9.759    -2.417  C    
     25 C           3.515    -8.826    -1.867  C    
     26 Cl          2.851    -7.507    -1.020  Cl   
     27 S           7.188    -5.939    -0.967  S    
     28 C           6.767    -4.640    -1.975  C    
     29 O           7.326    -3.561    -1.836  O    
     30 C           8.798    -3.400   -10.638  C    
     31 C           8.315    -2.861   -12.012  C    
     32 C           7.649    -1.468   -11.869  C    
     33 C           6.456    -1.502   -10.871  C    
     34 H           2.894    -1.208    -4.773  H    
     35 H           2.086     0.356    -4.995  H    
     36 H           3.853     0.288    -4.840  H    
     37 H           2.219    -0.885    -7.154  H    
     38 H           3.171     0.617    -7.225  H    
     39 H           5.028    -2.783    -6.015  H    
     40 H           5.470    -2.967    -3.545  H    
     41 H           4.406    -4.193    -4.190  H    
     42 H           6.483    -8.559    -0.797  H    
     43 H           6.382   -10.395    -2.735  H    
     44 H           4.816   -11.969    -3.673  H    
     45 H           2.427   -11.579    -3.480  H    
     46 H           1.600    -9.618    -2.334  H    
     47 H           9.733    -2.907   -10.356  H    
     48 H           8.990    -4.472   -10.727  H    
     49 H           9.161    -2.798   -12.700  H    
     50 H           7.590    -3.562   -12.441  H    
     51 H           8.397    -0.752   -11.515  H    
     52 H           7.301    -1.129   -12.849  H    
     53 H           5.584    -1.920   -11.382  H    
     54 H           6.232    -0.468   -10.593  H    
@<TRIPOS>BOND
     1    1    2 1
     2    2    3 1
     3    3    4 1
     4    4    5 2
     5    4    6 1
     6    6   10 2
     7    6    7 1
     8    7   33 1
     9    7    8 2
    10    8    9 1
    11    8   30 1
    12    9   10 1
    13   10   11 1
    14   11   12 1
    15   12   13 2
    16   12   14 1
    17   14   15 1
    18   15   28 1
    19   15   16 1
    20   16   17 2
    21   16   18 1
    22   18   19 2
    23   18   27 1
    24   19   20 1
    25   20   25 ar
    26   20   21 ar
    27   21   22 ar
    28   22   23 ar
    29   23   24 ar
    30   24   25 ar
    31   25   26 1
    32   27   28 1
    33   28   29 2
    34   30   31 1
    35   31   32 1
    36   32   33 1
    37    1   34 1
    38    1   35 1
    39    1   36 1
    40    2   37 1
    41    2   38 1
    42   11   39 1
    43   14   40 1
    44   14   41 1
    45   19   42 1
    46   21   43 1
    47   22   44 1
    48   23   45 1
    49   24   46 1
    50   30   47 1
    51   30   48 1
    52   31   49 1
    53   31   50 1
    54   32   51 1
    55   32   52 1
    56   33   53 1
    57   33   54 1
@<TRIPOS>MOLECULE
ZINC01325911
 61 65 0 0 0
SMALL
NO_CHARGES


@<TRIPOS>ATOM
      1 C           4.467   -15.875    -4.837  C    
      2 C           3.731   -14.607    -4.757  C    
      3 C           4.016   -13.415    -5.408  C    
      4 C           3.032   -12.521    -5.010  C    
      5 N           2.211   -13.174    -4.162  N    
      6 O           2.622   -14.406    -4.010  O    
      7 N           2.971   -11.238    -5.435  N    
      8 C           2.056   -10.326    -5.126  C    
      9 O           1.100   -10.587    -4.405  O    
     10 C           2.164    -8.989    -5.676  C    
     11 S           2.379    -7.774    -4.351  S    
     12 C           2.623    -6.352    -5.325  C    
     13 N           2.167    -6.121    -6.573  N    
     14 N           2.573    -4.948    -6.975  N    
     15 C           3.287    -4.423    -5.972  C    
     16 N           3.318    -5.272    -4.956  N    
     17 C           4.046    -4.729    -3.975  C    
     18 C           4.371    -5.185    -2.685  C    
     19 C           5.174    -4.366    -1.860  C    
     20 C           5.637    -3.117    -2.332  C    
     21 C           5.301    -2.671    -3.629  C    
     22 C           4.495    -3.487    -4.448  C    
     23 N           4.003    -3.311    -5.705  N    
     24 C           4.247    -2.238    -6.630  C    
     25 C           5.514    -2.374    -7.348  C    
     26 O           5.817    -3.521    -7.661  O    
     27 N           6.302    -1.363    -7.768  N    
     28 C           5.774    -0.096    -8.291  C    
     29 C           6.195     1.072    -7.353  C    
     30 C           7.733     1.108    -7.193  C    
     31 C           8.284    -0.275    -6.774  C    
     32 C           7.782    -1.429    -7.706  C    
     33 C           8.479    -2.756    -7.273  C    
     34 C           4.272     0.028    -8.702  C    
     35 H           4.831   -16.141    -3.844  H    
     36 H           5.317   -15.795    -5.519  H    
     37 H           3.797   -16.657    -5.196  H    
     38 H           4.793   -13.231    -6.054  H    
     39 H           3.684   -10.957    -6.035  H    
     40 H           3.016    -8.921    -6.359  H    
     41 H           1.255    -8.760    -6.235  H    
     42 H           4.031    -6.086    -2.340  H    
     43 H           5.417    -4.674    -0.913  H    
     44 H           6.216    -2.526    -1.724  H    
     45 H           5.633    -1.759    -3.965  H    
     46 H           3.426    -2.206    -7.351  H    
     47 H           4.229    -1.299    -6.070  H    
     48 H           6.282     0.057    -9.250  H    
     49 H           5.859     2.026    -7.766  H    
     50 H           5.731     0.940    -6.372  H    
     51 H           8.187     1.407    -8.140  H    
     52 H           8.003     1.851    -6.442  H    
     53 H           9.376    -0.227    -6.795  H    
     54 H           7.973    -0.487    -5.747  H    
     55 H           8.162    -1.232    -8.713  H    
     56 H           8.107    -3.087    -6.300  H    
     57 H           9.563    -2.629    -7.201  H    
     58 H           8.299    -3.544    -8.010  H    
     59 H           3.963    -0.857    -9.266  H    
     60 H           4.128     0.898    -9.350  H    
     61 H           3.627     0.146    -7.829  H    
@<TRIPOS>BOND
     1    1    2 1
     2    2    6 1
     3    2    3 2
     4    3    4 1
     5    4    5 2
     6    4    7 1
     7    5    6 1
     8    7    8 1
     9    8    9 2
    10    8   10 1
    11   10   11 1
    12   11   12 1
    13   12   16 1
    14   12   13 2
    15   13   14 1
    16   14   15 2
    17   15   23 1
    18   15   16 1
    19   16   17 1
    20   17   22 ar
    21   17   18 ar
    22   18   19 ar
    23   19   20 ar
    24   20   21 ar
    25   21   22 ar
    26   22   23 1
    27   23   24 1
    28   24   25 1
    29   25   26 2
    30   25   27 1
    31   27   32 1
    32   27   28 1
    33   28   29 1
    34   28   34 1
    35   29   30 1
    36   30   31 1
    37   31   32 1
    38   32   33 1
    39    1   35 1
    40    1   36 1
    41    1   37 1
    42    3   38 1
    43    7   39 1
    44   10   40 1
    45   10   41 1
    46   18   42 1
    47   19   43 1
    48   20   44 1
    49   21   45 1
    50   24   46 1
    51   24   47 1
    52   28   48 1
    53   29   49 1
    54   29   50 1
    55   30   51 1
    56   30   52 1
    57   31   53 1
    58   31   54 1
    59   32   55 1
    60   33   56 1
    61   33   57 1
    62   33   58 1
    63   34   59 1
    64   34   60 1
    65   34   61 1
@<TRIPOS>MOLECULE
ZINC01340218
 55 58 0 0 0
SMALL
NO_CHARGES


@<TRIPOS>ATOM
      1 C           0.904    -3.135    -3.758  C    
      2 O           1.411    -4.383    -4.263  O    
      3 C           2.770    -4.519    -4.164  C    
      4 C           3.411    -4.727    -2.923  C    
      5 C           4.805    -4.911    -2.866  C    
      6 C           5.574    -4.915    -4.051  C    
      7 C           4.929    -4.725    -5.291  C    
      8 C           3.535    -4.534    -5.347  C    
      9 S           7.293    -5.188    -3.976  S    
     10 O           8.000    -4.415    -5.176  O    
     11 O           7.921    -4.504    -2.681  O    
     12 N           7.725    -6.830    -3.979  N    
     13 C           8.355    -7.413    -5.141  C    
     14 C           7.379    -7.598    -6.335  C    
     15 C           7.983    -8.377    -7.449  C    
     16 C           8.963    -7.789    -8.282  C    
     17 C           9.547    -8.521    -9.333  C    
     18 C           9.162    -9.852    -9.561  C    
     19 C           8.189   -10.451    -8.740  C    
     20 C           7.599    -9.717    -7.694  C    
     21 C           7.407    -7.639    -2.827  C    
     22 C           6.325    -8.600    -3.112  C    
     23 N           6.559    -9.942    -3.099  N    
     24 C           5.613   -10.832    -3.386  C    
     25 O           5.925   -12.017    -3.350  O    
     26 C           4.320   -10.415    -3.724  C    
     27 C           3.265   -11.300    -4.045  C    
     28 C           1.987   -10.801    -4.370  C    
     29 C           1.750    -9.412    -4.373  C    
     30 C           2.791    -8.520    -4.055  C    
     31 C           4.071    -9.014    -3.733  C    
     32 N           5.082    -8.151    -3.428  N    
     33 H           0.981    -3.097    -2.666  H    
     34 H          -0.152    -3.069    -4.025  H    
     35 H           1.423    -2.273    -4.195  H    
     36 H           2.863    -4.753    -2.062  H    
     37 H           5.249    -5.061    -1.956  H    
     38 H           5.466    -4.731    -6.161  H    
     39 H           3.078    -4.406    -6.252  H    
     40 H           9.199    -6.790    -5.443  H    
     41 H           8.772    -8.390    -4.886  H    
     42 H           6.477    -8.096    -5.977  H    
     43 H           7.070    -6.622    -6.712  H    
     44 H           9.257    -6.821    -8.133  H    
     45 H          10.249    -8.081    -9.931  H    
     46 H           9.590   -10.382   -10.322  H    
     47 H           7.911   -11.419    -8.903  H    
     48 H           6.898   -10.173    -7.107  H    
     49 H           8.310    -8.171    -2.514  H    
     50 H           7.100    -7.028    -1.973  H    
     51 H           7.450   -10.260    -2.883  H    
     52 H           3.415   -12.313    -4.041  H    
     53 H           1.231   -11.450    -4.597  H    
     54 H           0.821    -9.054    -4.604  H    
     55 H           2.616    -7.513    -4.061  H    
@<TRIPOS>BOND
     1    1    2 1
     2    2    3 1
     3    3    8 ar
     4    3    4 ar
     5    4    5 ar
     6    5    6 ar
     7    6    7 ar
     8    6    9 1
     9    7    8 ar
    10    9   10 2
    11    9   11 2
    12    9   12 1
    13   12   13 1
    14   12   21 1
    15   13   14 1
    16   14   15 1
    17   15   20 ar
    18   15   16 ar
    19   16   17 ar
    20   17   18 ar
    21   18   19 ar
    22   19   20 ar
    23   21   22 1
    24   22   32 2
    25   22   23 1
    26   23   24 1
    27   24   25 2
    28   24   26 1
    29   26   31 ar
    30   26   27 ar
    31   27   28 ar
    32   28   29 ar
    33   29   30 ar
    34   30   31 ar
    35   31   32 1
    36    1   33 1
    37    1   34 1
    38    1   35 1
    39    4   36 1
    40    5   37 1
    41    7   38 1
    42    8   39 1
    43   13   40 1
    44   13   41 1
    45   14   42 1
    46   14   43 1
    47   16   44 1
    48   17   45 1
    49   18   46 1
    50   19   47 1
    51   20   48 1
    52   21   49 1
    53   21   50 1
    54   23   51 1
    55   27   52 1
    56   28   53 1
    57   29   54 1
    58   30   55 1
@<TRIPOS>MOLECULE
ZINC01344873
 56 58 0 0 0
SMALL
NO_CHARGES


@<TRIPOS>ATOM
      1 C           4.174    -7.601    -6.108  C    
      2 C           3.375    -7.335    -4.814  C    
      3 O           4.022    -6.291    -4.072  O    
      4 C           3.249    -5.745    -3.075  C    
      5 C           3.105    -6.419    -1.844  C    
      6 C           2.335    -5.853    -0.812  C    
      7 C           1.711    -4.609    -1.004  C    
      8 C           1.869    -3.920    -2.220  C    
      9 C           2.652    -4.471    -3.263  C    
     10 N           2.844    -3.857    -4.469  N    
     11 C           2.988    -2.568    -4.741  C    
     12 O           2.956    -1.710    -3.868  O    
     13 N           3.262    -2.283    -6.007  N    
     14 C           3.614    -1.033    -6.649  C    
     15 C           4.818    -0.278    -5.966  C    
     16 C           5.062     1.139    -6.550  C    
     17 C           3.804     2.029    -6.405  C    
     18 C           2.560     1.366    -7.048  C    
     19 C           2.347    -0.090    -6.540  C    
     20 C           3.983    -1.418    -8.044  C    
     21 O           3.303    -0.901    -8.927  O    
     22 N           4.942    -2.289    -8.449  N    
     23 C           5.729    -3.153    -7.573  C    
     24 C           7.245    -2.936    -7.828  C    
     25 O           7.560    -3.111    -9.223  O    
     26 C           6.785    -2.264   -10.096  C    
     27 C           5.267    -2.481    -9.864  C    
     28 H           4.116    -6.727    -6.771  H    
     29 H           3.754    -8.463    -6.627  H    
     30 H           5.228    -7.805    -5.878  H    
     31 H           2.347    -7.066    -5.089  H    
     32 H           3.353    -8.248    -4.212  H    
     33 H           3.557    -7.324    -1.700  H    
     34 H           2.226    -6.348     0.075  H    
     35 H           1.135    -4.205    -0.262  H    
     36 H           1.380    -3.030    -2.347  H    
     37 H           3.009    -4.454    -5.215  H    
     38 H           3.267    -3.056    -6.593  H    
     39 H           4.630    -0.160    -4.898  H    
     40 H           5.749    -0.831    -6.052  H    
     41 H           5.897     1.610    -6.021  H    
     42 H           5.338     1.063    -7.608  H    
     43 H           3.608     2.208    -5.343  H    
     44 H           3.987     2.997    -6.879  H    
     45 H           1.675     1.963    -6.806  H    
     46 H           2.671     1.380    -8.135  H    
     47 H           1.508    -0.533    -7.084  H    
     48 H           2.031    -0.011    -5.498  H    
     49 H           5.552    -3.028    -6.509  H    
     50 H           5.485    -4.194    -7.800  H    
     51 H           7.545    -1.939    -7.499  H    
     52 H           7.819    -3.667    -7.253  H    
     53 H           7.047    -1.217    -9.925  H    
     54 H           7.037    -2.510   -11.129  H    
     55 H           5.004    -3.501   -10.156  H    
     56 H           4.738    -1.815   -10.550  H    
@<TRIPOS>BOND
     1    1    2 1
     2    2    3 1
     3    3    4 1
     4    4    9 ar
     5    4    5 ar
     6    5    6 ar
     7    6    7 ar
     8    7    8 ar
     9    8    9 ar
    10    9   10 1
    11   10   11 1
    12   11   12 2
    13   11   13 1
    14   13   14 1
    15   14   19 1
    16   14   15 1
    17   14   20 1
    18   15   16 1
    19   16   17 1
    20   17   18 1
    21   18   19 1
    22   20   21 2
    23   20   22 1
    24   22   27 1
    25   22   23 1
    26   23   24 1
    27   24   25 1
    28   25   26 1
    29   26   27 1
    30    1   28 1
    31    1   29 1
    32    1   30 1
    33    2   31 1
    34    2   32 1
    35    5   33 1
    36    6   34 1
    37    7   35 1
    38    8   36 1
    39   10   37 1
    40   13   38 1
    41   15   39 1
    42   15   40 1
    43   16   41 1
    44   16   42 1
    45   17   43 1
    46   17   44 1
    47   18   45 1
    48   18   46 1
    49   19   47 1
    50   19   48 1
    51   23   49 1
    52   23   50 1
    53   24   51 1
    54   24   52 1
    55   26   53 1
    56   26   54 1
    57   27   55 1
    58   27   56 1
@<TRIPOS>MOLECULE
ZINC01361385
 44 46 0 0 0
SMALL
NO_CHARGES


@<TRIPOS>ATOM
      1 C          -1.235    -1.359     4.116  C    
      2 C          -0.438    -1.865     3.021  C    
      3 O          -0.670    -3.007     2.642  O    
      4 N           0.539    -1.115     2.521  N    
      5 C           1.430    -1.372     1.512  C    
      6 C           1.251    -2.326     0.482  C    
      7 C           2.230    -2.504    -0.513  C    
      8 C           3.422    -1.739    -0.514  C    
      9 C           3.578    -0.758     0.494  C    
     10 C           2.598    -0.578     1.488  C    
     11 N           4.390    -1.903    -1.476  N    
     12 C           4.851    -3.019    -2.067  C    
     13 N           5.804    -2.612    -2.910  N    
     14 N           5.863    -1.358    -2.809  N    
     15 N           5.055    -0.949    -1.982  N    
     16 S           4.454    -4.693    -1.772  S    
     17 C           4.007    -5.120    -3.473  C    
     18 C           3.431    -6.456    -3.525  C    
     19 O           2.398    -6.625    -2.888  O    
     20 C           3.941    -7.524    -4.276  C    
     21 C           4.537    -7.303    -5.545  C    
     22 C           5.031    -8.370    -6.321  C    
     23 C           4.927    -9.687    -5.844  C    
     24 C           4.330    -9.934    -4.597  C    
     25 C           3.852    -8.867    -3.807  C    
     26 O           3.278    -9.182    -2.601  O    
     27 C           4.216    -9.218    -1.511  C    
     28 Cl          5.732    -8.073    -7.834  Cl   
     29 H          -2.291    -1.359     3.838  H    
     30 H          -0.954    -0.337     4.390  H    
     31 H          -1.099    -1.997     4.991  H    
     32 H           0.677    -0.268     2.976  H    
     33 H           0.395    -2.880     0.422  H    
     34 H           2.050    -3.179    -1.259  H    
     35 H           4.418    -0.175     0.520  H    
     36 H           2.751     0.135     2.206  H    
     37 H           3.277    -4.403    -3.854  H    
     38 H           4.914    -5.038    -4.073  H    
     39 H           4.587    -6.361    -5.938  H    
     40 H           5.276   -10.469    -6.402  H    
     41 H           4.250   -10.897    -4.262  H    
     42 H           4.989    -9.974    -1.674  H    
     43 H           3.672    -9.479    -0.602  H    
     44 H           4.685    -8.244    -1.360  H    
@<TRIPOS>BOND
     1    1    2 1
     2    2    3 2
     3    2    4 1
     4    4    5 1
     5    5   10 ar
     6    5    6 ar
     7    6    7 ar
     8    7    8 ar
     9    8    9 ar
    10    8   11 1
    11    9   10 ar
    12   11   15 1
    13   11   12 1
    14   12   13 2
    15   12   16 1
    16   13   14 1
    17   14   15 2
    18   16   17 1
    19   17   18 1
    20   18   19 2
    21   18   20 1
    22   20   25 ar
    23   20   21 ar
    24   21   22 ar
    25   22   23 ar
    26   22   28 1
    27   23   24 ar
    28   24   25 ar
    29   25   26 1
    30   26   27 1
    31    1   29 1
    32    1   30 1
    33    1   31 1
    34    4   32 1
    35    6   33 1
    36    7   34 1
    37    9   35 1
    38   10   36 1
    39   17   37 1
    40   17   38 1
    41   21   39 1
    42   23   40 1
    43   24   41 1
    44   27   42 1
    45   27   43 1
    46   27   44 1
@<TRIPOS>MOLECULE
ZINC01365703
 57 60 0 0 0
SMALL
NO_CHARGES


@<TRIPOS>ATOM
      1 C           2.328    -7.786    -9.736  C    
      2 C           2.019    -8.789   -10.677  C    
      3 C           3.039    -9.283   -11.505  C    
      4 C           4.333    -8.802   -11.399  C    
      5 C           4.656    -7.805   -10.459  C    
      6 C           3.650    -7.280    -9.610  C    
      7 C           3.932    -6.195    -8.625  C    
      8 N           5.248    -6.261    -7.984  N    
      9 C           5.401    -7.170    -6.823  C    
     10 C           4.809    -8.539    -7.031  C    
     11 C           5.514    -9.506    -7.795  C    
     12 C           4.952   -10.774    -8.034  C    
     13 N           3.723   -11.072    -7.538  N    
     14 C           3.002   -10.183    -6.811  C    
     15 C           3.525    -8.902    -6.547  C    
     16 C           5.005    -6.541    -5.559  C    
     17 O           4.272    -5.558    -5.564  O    
     18 N           5.434    -7.044    -4.409  N    
     19 C           5.174    -6.531    -3.093  C    
     20 C           6.438    -6.729    -2.206  C    
     21 C           6.185    -6.305    -0.737  C    
     22 C           4.947    -7.026    -0.142  C    
     23 C           3.684    -6.811    -1.016  C    
     24 C           3.927    -7.237    -2.486  C    
     25 C           6.268    -5.443    -8.358  C    
     26 O           7.352    -5.544    -7.796  O    
     27 C           6.217    -4.371    -9.360  C    
     28 F           5.768    -4.813   -10.580  F    
     29 F           5.405    -3.354    -8.918  F    
     30 F           7.439    -3.786    -9.625  F    
     31 O           5.160    -9.404   -12.272  O    
     32 C           4.249   -10.221   -13.031  C    
     33 O           2.931   -10.233   -12.452  O    
     34 H           1.576    -7.428    -9.140  H    
     35 H           1.065    -9.146   -10.760  H    
     36 H           5.625    -7.495   -10.390  H    
     37 H           3.755    -5.255    -9.151  H    
     38 H           3.166    -6.198    -7.842  H    
     39 H           6.463    -7.388    -6.671  H    
     40 H           6.434    -9.288    -8.196  H    
     41 H           5.458   -11.473    -8.583  H    
     42 H           2.077   -10.444    -6.463  H    
     43 H           2.955    -8.238    -6.015  H    
     44 H           5.984    -7.843    -4.462  H    
     45 H           4.974    -5.454    -3.139  H    
     46 H           6.744    -7.779    -2.227  H    
     47 H           7.261    -6.133    -2.609  H    
     48 H           7.064    -6.547    -0.136  H    
     49 H           6.033    -5.224    -0.689  H    
     50 H           5.154    -8.097    -0.064  H    
     51 H           4.758    -6.648     0.866  H    
     52 H           2.858    -7.394    -0.605  H    
     53 H           3.397    -5.756    -0.986  H    
     54 H           3.046    -6.983    -3.080  H    
     55 H           4.060    -8.321    -2.531  H    
     56 H           4.186    -9.834   -14.052  H    
     57 H           4.631   -11.243   -13.071  H    
@<TRIPOS>BOND
     1    1    6 ar
     2    1    2 ar
     3    2    3 ar
     4    3   33 1
     5    3    4 ar
     6    4    5 ar
     7    4   31 1
     8    5    6 ar
     9    6    7 1
    10    7    8 1
    11    8    9 1
    12    8   25 1
    13    9   10 1
    14    9   16 1
    15   10   15 ar
    16   10   11 ar
    17   11   12 ar
    18   12   13 ar
    19   13   14 ar
    20   14   15 ar
    21   16   17 2
    22   16   18 1
    23   18   19 1
    24   19   24 1
    25   19   20 1
    26   20   21 1
    27   21   22 1
    28   22   23 1
    29   23   24 1
    30   25   26 2
    31   25   27 1
    32   27   28 1
    33   27   29 1
    34   27   30 1
    35   31   32 1
    36   32   33 1
    37    1   34 1
    38    2   35 1
    39    5   36 1
    40    7   37 1
    41    7   38 1
    42    9   39 1
    43   11   40 1
    44   12   41 1
    45   14   42 1
    46   15   43 1
    47   18   44 1
    48   19   45 1
    49   20   46 1
    50   20   47 1
    51   21   48 1
    52   21   49 1
    53   22   50 1
    54   22   51 1
    55   23   52 1
    56   23   53 1
    57   24   54 1
    58   24   55 1
    59   32   56 1
    60   32   57 1
@<TRIPOS>MOLECULE
ZINC01367112
 52 54 0 0 0
SMALL
NO_CHARGES


@<TRIPOS>ATOM
      1 C           5.388     0.404    -0.428  C    
      2 C           5.219    -0.511    -1.667  C    
      3 N           5.635    -1.892    -1.439  N    
      4 C           4.698    -2.758    -0.724  C    
      5 C           3.381    -3.074    -1.481  C    
      6 C           6.925    -2.258    -1.629  C    
      7 O           7.763    -1.358    -1.661  O    
      8 N           7.414    -3.509    -1.770  N    
      9 C           8.730    -3.874    -1.243  C    
     10 C           8.571    -4.544     0.063  C    
     11 C           8.792    -5.896     0.367  C    
     12 C           8.533    -6.243     1.705  C    
     13 C           8.111    -5.171     2.504  C    
     14 S           8.050    -3.764     1.511  S    
     15 C           6.691    -4.545    -2.499  C    
     16 C           7.347    -4.909    -3.767  C    
     17 C           7.369    -3.999    -4.772  C    
     18 C           7.956    -4.272    -6.010  C    
     19 C           7.954    -3.347    -7.075  C    
     20 C           8.553    -3.672    -8.311  C    
     21 C           9.167    -4.938    -8.467  C    
     22 C           9.172    -5.868    -7.411  C    
     23 C           8.564    -5.542    -6.185  C    
     24 N           8.535    -6.429    -5.142  N    
     25 C           7.946    -6.140    -3.983  C    
     26 O           7.994    -7.007    -3.120  O    
     27 C           8.518    -2.685    -9.415  C    
     28 H           4.683     0.122     0.357  H    
     29 H           5.195     1.443    -0.708  H    
     30 H           6.403     0.335    -0.030  H    
     31 H           4.178    -0.470    -1.990  H    
     32 H           5.790    -0.074    -2.493  H    
     33 H           5.156    -3.707    -0.438  H    
     34 H           4.430    -2.279     0.220  H    
     35 H           2.711    -2.210    -1.467  H    
     36 H           2.867    -3.908    -0.993  H    
     37 H           3.574    -3.345    -2.521  H    
     38 H           9.257    -4.539    -1.935  H    
     39 H           9.396    -3.017    -1.097  H    
     40 H           9.107    -6.577    -0.332  H    
     41 H           8.649    -7.202     2.059  H    
     42 H           7.881    -5.226     3.501  H    
     43 H           6.572    -5.410    -1.844  H    
     44 H           5.681    -4.239    -2.767  H    
     45 H           6.943    -3.107    -4.636  H    
     46 H           7.508    -2.433    -6.951  H    
     47 H           9.608    -5.194    -9.353  H    
     48 H           9.613    -6.782    -7.538  H    
     49 H           8.958    -7.299    -5.253  H    
     50 H           7.480    -2.461    -9.676  H    
     51 H           9.024    -3.050   -10.312  H    
     52 H           9.009    -1.760    -9.099  H    
@<TRIPOS>BOND
     1    1    2 1
     2    2    3 1
     3    3    4 1
     4    3    6 1
     5    4    5 1
     6    6    7 2
     7    6    8 1
     8    8    9 1
     9    8   15 1
    10    9   10 1
    11   10   14 1
    12   10   11 2
    13   11   12 1
    14   12   13 2
    15   13   14 1
    16   15   16 1
    17   16   25 1
    18   16   17 2
    19   17   18 1
    20   18   23 ar
    21   18   19 ar
    22   19   20 ar
    23   20   21 ar
    24   20   27 1
    25   21   22 ar
    26   22   23 ar
    27   23   24 1
    28   24   25 1
    29   25   26 2
    30    1   28 1
    31    1   29 1
    32    1   30 1
    33    2   31 1
    34    2   32 1
    35    4   33 1
    36    4   34 1
    37    5   35 1
    38    5   36 1
    39    5   37 1
    40    9   38 1
    41    9   39 1
    42   11   40 1
    43   12   41 1
    44   13   42 1
    45   15   43 1
    46   15   44 1
    47   17   45 1
    48   19   46 1
    49   21   47 1
    50   22   48 1
    51   24   49 1
    52   27   50 1
    53   27   51 1
    54   27   52 1
@<TRIPOS>MOLECULE
ZINC01371165
 57 60 0 0 0
SMALL
NO_CHARGES


@<TRIPOS>ATOM
      1 C           3.351    -2.697    -3.850  C    
      2 C           4.752    -3.203    -3.834  C    
      3 C           5.131    -4.215    -4.752  C    
      4 C           6.441    -4.738    -4.765  C    
      5 C           6.847    -5.762    -5.627  C    
      6 C           8.089    -6.307    -5.558  C    
      7 C           8.998    -5.763    -4.668  C    
      8 O          10.152    -6.159    -4.580  O    
      9 N           8.652    -4.769    -3.851  N    
     10 C           7.392    -4.239    -3.845  C    
     11 C           7.033    -3.229    -2.937  C    
     12 C           5.720    -2.701    -2.914  C    
     13 C           5.384    -1.641    -1.924  C    
     14 C           8.390    -7.501    -6.364  C    
     15 N           7.515    -8.625    -6.025  N    
     16 C           7.657    -9.188    -4.686  C    
     17 C           6.674    -8.602    -3.749  C    
     18 C           6.953    -7.859    -2.603  C    
     19 C           5.741    -7.455    -2.073  C    
     20 C           4.753    -7.965    -2.902  C    
     21 O           5.331    -8.653    -3.913  O    
     22 C           6.596    -9.097    -6.895  C    
     23 O           6.490    -8.596    -8.010  O    
     24 N           5.727   -10.047    -6.554  N    
     25 C           4.688   -10.592    -7.263  C    
     26 C           4.731   -10.839    -8.655  C    
     27 C           3.622   -11.394    -9.320  C    
     28 C           2.454   -11.710    -8.600  C    
     29 C           2.408   -11.497    -7.214  C    
     30 C           3.528   -10.965    -6.538  C    
     31 O           3.457   -10.735    -5.189  O    
     32 C           3.714   -11.900    -4.388  C    
     33 H           2.883    -2.874    -2.879  H    
     34 H           2.740    -3.188    -4.609  H    
     35 H           3.343    -1.626    -4.058  H    
     36 H           4.444    -4.587    -5.414  H    
     37 H           6.181    -6.136    -6.267  H    
     38 H           9.313    -4.415    -3.235  H    
     39 H           7.741    -2.884    -2.282  H    
     40 H           5.037    -0.743    -2.439  H    
     41 H           6.244    -1.361    -1.309  H    
     42 H           4.596    -1.995    -1.254  H    
     43 H           8.324    -7.201    -7.412  H    
     44 H           9.424    -7.835    -6.237  H    
     45 H           7.534   -10.274    -4.695  H    
     46 H           8.667    -9.014    -4.299  H    
     47 H           7.876    -7.632    -2.232  H    
     48 H           5.603    -6.881    -1.239  H    
     49 H           3.748    -7.834    -2.782  H    
     50 H           5.762   -10.321    -5.626  H    
     51 H           5.575   -10.634    -9.196  H    
     52 H           3.663   -11.565   -10.328  H    
     53 H           1.643   -12.103    -9.086  H    
     54 H           1.557   -11.731    -6.693  H    
     55 H           2.860   -12.590    -4.443  H    
     56 H           3.836   -11.577    -3.347  H    
     57 H           4.632   -12.429    -4.693  H    
@<TRIPOS>BOND
     1    1    2 1
     2    2   12 ar
     3    2    3 ar
     4    3    4 ar
     5    4   10 ar
     6    4    5 1
     7    5    6 2
     8    6    7 1
     9    6   14 1
    10    7    8 2
    11    7    9 1
    12    9   10 1
    13   10   11 ar
    14   11   12 ar
    15   12   13 1
    16   14   15 1
    17   15   16 1
    18   15   22 1
    19   16   17 1
    20   17   21 1
    21   17   18 2
    22   18   19 1
    23   19   20 2
    24   20   21 1
    25   22   23 2
    26   22   24 1
    27   24   25 1
    28   25   30 ar
    29   25   26 ar
    30   26   27 ar
    31   27   28 ar
    32   28   29 ar
    33   29   30 ar
    34   30   31 1
    35   31   32 1
    36    1   33 1
    37    1   34 1
    38    1   35 1
    39    3   36 1
    40    5   37 1
    41    9   38 1
    42   11   39 1
    43   13   40 1
    44   13   41 1
    45   13   42 1
    46   14   43 1
    47   14   44 1
    48   16   45 1
    49   16   46 1
    50   18   47 1
    51   19   48 1
    52   20   49 1
    53   24   50 1
    54   26   51 1
    55   27   52 1
    56   28   53 1
    57   29   54 1
    58   32   55 1
    59   32   56 1
    60   32   57 1
@<TRIPOS>MOLECULE
ZINC01375014
 66 69 0 0 0
SMALL
NO_CHARGES


@<TRIPOS>ATOM
      1 C          10.613     1.590    -4.767  C    
      2 C           9.394     1.127    -3.935  C    
      3 C           8.000     1.225    -4.648  C    
      4 C           7.820     2.636    -5.119  C    
      5 N           7.695     3.614    -4.211  N    
      6 N           7.607     4.698    -4.829  N    
      7 N           7.664     4.498    -6.032  N    
      8 N           7.786     3.262    -6.320  N    
      9 C           7.917     2.856    -7.723  C    
     10 C           9.334     3.294    -8.210  C    
     11 C           7.758     1.326    -8.004  C    
     12 C           6.832     3.589    -8.586  C    
     13 C           5.514     0.801    -4.621  C    
     14 C           4.377     1.351    -3.857  C    
     15 C           3.156     0.732    -3.596  C    
     16 C           2.400     1.627    -2.852  C    
     17 C           3.179     2.767    -2.687  C    
     18 O           4.373     2.588    -3.303  O    
     19 C           6.958    -0.419    -2.972  C    
     20 C           5.871    -0.655    -2.010  C    
     21 C           5.055    -1.729    -2.133  C    
     22 C           3.968    -1.929    -1.277  C    
     23 C           3.076    -3.013    -1.407  C    
     24 C           1.967    -3.163    -0.536  C    
     25 C           1.751    -2.198     0.494  C    
     26 C           2.655    -1.113     0.616  C    
     27 C           3.748    -0.976    -0.254  C    
     28 N           4.615     0.077    -0.141  N    
     29 C           5.639     0.235    -0.974  C    
     30 O           6.357     1.212    -0.779  O    
     31 C           0.615    -2.281     1.450  C    
     32 C           1.092    -4.339    -0.773  C    
     33 N           6.794     0.831    -3.812  N    
     34 H          10.676     1.021    -5.696  H    
     35 H          11.528     1.423    -4.197  H    
     36 H          10.547     2.652    -5.003  H    
     37 H           9.595     0.084    -3.673  H    
     38 H           9.363     1.704    -3.004  H    
     39 H           8.046     0.537    -5.486  H    
     40 H           9.476     4.370    -8.086  H    
     41 H           9.479     3.053    -9.265  H    
     42 H          10.110     2.786    -7.634  H    
     43 H           8.614     0.762    -7.630  H    
     44 H           7.689     1.124    -9.076  H    
     45 H           6.848     0.942    -7.539  H    
     46 H           5.832     3.343    -8.224  H    
     47 H           6.897     3.302    -9.639  H    
     48 H           6.954     4.674    -8.539  H    
     49 H           5.289    -0.212    -4.968  H    
     50 H           5.566     1.426    -5.514  H    
     51 H           2.862    -0.204    -3.887  H    
     52 H           1.451     1.478    -2.500  H    
     53 H           2.889     3.611    -2.180  H    
     54 H           7.855    -0.359    -2.355  H    
     55 H           7.104    -1.270    -3.644  H    
     56 H           5.201    -2.382    -2.871  H    
     57 H           3.235    -3.700    -2.154  H    
     58 H           2.518    -0.410     1.347  H    
     59 H           4.474     0.724     0.567  H    
     60 H          -0.332    -2.247     0.907  H    
     61 H           0.606    -1.459     2.172  H    
     62 H           0.669    -3.212     2.018  H    
     63 H           0.682    -4.289    -1.783  H    
     64 H           0.257    -4.407    -0.077  H    
     65 H           1.679    -5.254    -0.682  H    
     66 H           6.688     1.589    -3.137  H    
@<TRIPOS>BOND
     1    1    2 1
     2    2    3 1
     3    3    4 1
     4    3   33 1
     5    4    8 1
     6    4    5 2
     7    5    6 1
     8    6    7 2
     9    7    8 1
    10    8    9 1
    11    9   10 1
    12    9   11 1
    13    9   12 1
    14   13   14 1
    15   13   33 1
    16   14   18 1
    17   14   15 2
    18   15   16 1
    19   16   17 2
    20   17   18 1
    21   19   20 1
    22   19   33 1
    23   20   29 1
    24   20   21 2
    25   21   22 1
    26   22   27 ar
    27   22   23 ar
    28   23   24 ar
    29   24   25 ar
    30   24   32 1
    31   25   26 ar
    32   25   31 1
    33   26   27 ar
    34   27   28 1
    35   28   29 1
    36   29   30 2
    37    1   34 1
    38    1   35 1
    39    1   36 1
    40    2   37 1
    41    2   38 1
    42    3   39 1
    43   10   40 1
    44   10   41 1
    45   10   42 1
    46   11   43 1
    47   11   44 1
    48   11   45 1
    49   12   46 1
    50   12   47 1
    51   12   48 1
    52   13   49 1
    53   13   50 1
    54   15   51 1
    55   16   52 1
    56   17   53 1
    57   19   54 1
    58   19   55 1
    59   21   56 1
    60   23   57 1
    61   26   58 1
    62   28   59 1
    63   31   60 1
    64   31   61 1
    65   31   62 1
    66   32   63 1
    67   32   64 1
    68   32   65 1
    69   33   66 1
@<TRIPOS>MOLECULE
ZINC01380000
 58 62 0 0 0
SMALL
NO_CHARGES


@<TRIPOS>ATOM
      1 C           9.736    -4.891    -2.675  C    
      2 C           8.900    -4.098    -1.904  C    
      3 C           7.826    -3.694    -2.709  C    
      4 O           8.033    -4.220    -3.948  O    
      5 C           9.173    -4.946    -3.944  C    
      6 C           6.757    -2.880    -2.323  C    
      7 O           6.967    -2.238    -1.296  O    
      8 N           5.566    -2.738    -2.967  N    
      9 C           4.649    -1.831    -2.457  C    
     10 C           3.917    -2.144    -1.288  C    
     11 C           2.973    -1.240    -0.775  C    
     12 C           2.735    -0.014    -1.425  C    
     13 C           3.469     0.315    -2.594  C    
     14 C           4.415    -0.593    -3.101  C    
     15 O           3.220     1.480    -3.292  O    
     16 C           2.512     2.512    -2.573  C    
     17 C           1.348     1.902    -1.753  C    
     18 O           1.840     0.873    -0.869  O    
     19 C           5.176    -3.525    -4.154  C    
     20 C           3.688    -3.739    -4.310  C    
     21 C           3.038    -4.721    -3.518  C    
     22 C           1.644    -4.888    -3.604  C    
     23 N           0.921    -4.097    -4.436  N    
     24 C           1.491    -3.134    -5.202  C    
     25 C           2.881    -2.929    -5.150  C    
     26 C           5.815    -3.060    -5.390  C    
     27 O           6.384    -1.975    -5.423  O    
     28 N           5.799    -3.841    -6.462  N    
     29 C           6.383    -3.536    -7.735  C    
     30 C           6.280    -4.724    -8.715  C    
     31 C           6.493    -4.092   -10.103  C    
     32 C           5.934    -2.659    -9.997  C    
     33 C           5.676    -2.393    -8.494  C    
     34 H          10.603    -5.347    -2.370  H    
     35 H           9.042    -3.876    -0.914  H    
     36 H           9.554    -5.454    -4.744  H    
     37 H           4.073    -3.034    -0.810  H    
     38 H           2.462    -1.473     0.080  H    
     39 H           4.928    -0.352    -3.953  H    
     40 H           3.205     3.028    -1.902  H    
     41 H           2.122     3.237    -3.289  H    
     42 H           0.867     2.683    -1.162  H    
     43 H           0.602     1.474    -2.428  H    
     44 H           5.570    -4.538    -3.996  H    
     45 H           3.571    -5.313    -2.874  H    
     46 H           1.169    -5.596    -3.042  H    
     47 H           0.907    -2.553    -5.806  H    
     48 H           3.289    -2.180    -5.716  H    
     49 H           5.373    -4.708    -6.367  H    
     50 H           7.442    -3.289    -7.596  H    
     51 H           7.031    -5.492    -8.503  H    
     52 H           5.286    -5.179    -8.667  H    
     53 H           7.561    -4.060   -10.333  H    
     54 H           5.987    -4.664   -10.883  H    
     55 H           6.655    -1.941   -10.397  H    
     56 H           5.003    -2.566   -10.562  H    
     57 H           4.598    -2.422    -8.297  H    
     58 H           6.063    -1.416    -8.190  H    
@<TRIPOS>BOND
     1    1    5 2
     2    1    2 1
     3    2    3 2
     4    3    4 1
     5    3    6 1
     6    4    5 1
     7    6    7 2
     8    6    8 1
     9    8    9 1
    10    8   19 1
    11    9   14 ar
    12    9   10 ar
    13   10   11 ar
    14   11   12 ar
    15   12   18 1
    16   12   13 ar
    17   13   14 ar
    18   13   15 1
    19   15   16 1
    20   16   17 1
    21   17   18 1
    22   19   20 1
    23   19   26 1
    24   20   25 ar
    25   20   21 ar
    26   21   22 ar
    27   22   23 ar
    28   23   24 ar
    29   24   25 ar
    30   26   27 2
    31   26   28 1
    32   28   29 1
    33   29   33 1
    34   29   30 1
    35   30   31 1
    36   31   32 1
    37   32   33 1
    38    1   34 1
    39    2   35 1
    40    5   36 1
    41   10   37 1
    42   11   38 1
    43   14   39 1
    44   16   40 1
    45   16   41 1
    46   17   42 1
    47   17   43 1
    48   19   44 1
    49   21   45 1
    50   22   46 1
    51   24   47 1
    52   25   48 1
    53   28   49 1
    54   29   50 1
    55   30   51 1
    56   30   52 1
    57   31   53 1
    58   31   54 1
    59   32   55 1
    60   32   56 1
    61   33   57 1
    62   33   58 1
@<TRIPOS>MOLECULE
ZINC00094247
 48 49 0 0 0
SMALL
NO_CHARGES


@<TRIPOS>ATOM
      1 C          -1.723    -1.744    -8.048  C    
      2 O          -0.464    -2.406    -8.268  O    
      3 C           0.384    -2.334    -7.196  C    
      4 C           1.202    -1.203    -6.993  C    
      5 C           2.091    -1.156    -5.902  C    
      6 C           2.197    -2.244    -4.993  C    
      7 C           1.399    -3.388    -5.243  C    
      8 C           0.502    -3.433    -6.328  C    
      9 C           3.069    -2.252    -3.897  C    
     10 C           3.595    -1.170    -3.291  C    
     11 C           4.427    -1.246    -2.230  C    
     12 O           5.420    -1.958    -2.299  O    
     13 N           4.150    -0.536    -1.145  N    
     14 C           4.923    -0.498     0.058  C    
     15 C           6.216     0.349    -0.091  C    
     16 C           7.065     0.317     1.132  C    
     17 C           8.326    -0.325     1.125  C    
     18 C           9.121    -0.363     2.284  C    
     19 C           8.661     0.224     3.479  C    
     20 C           7.421     0.903     3.493  C    
     21 C           6.625     0.929     2.329  C    
     22 O           6.964     1.475     4.648  O    
     23 C           7.285     2.873     4.755  C    
     24 O           9.453     0.202     4.593  O    
     25 C           9.235    -0.952     5.419  C    
     26 H          -2.244    -2.141    -7.171  H    
     27 H          -2.353    -1.911    -8.921  H    
     28 H          -1.584    -0.664    -7.931  H    
     29 H           1.150    -0.414    -7.640  H    
     30 H           2.680    -0.324    -5.802  H    
     31 H           1.450    -4.204    -4.626  H    
     32 H          -0.066    -4.269    -6.483  H    
     33 H           3.285    -3.141    -3.500  H    
     34 H           3.321    -0.259    -3.584  H    
     35 H           3.323    -0.031    -1.147  H    
     36 H           4.294    -0.051     0.830  H    
     37 H           5.166    -1.517     0.377  H    
     38 H           6.778    -0.021    -0.953  H    
     39 H           5.945     1.386    -0.309  H    
     40 H           8.677    -0.773     0.275  H    
     41 H          10.032    -0.829     2.258  H    
     42 H           5.720     1.404     2.360  H    
     43 H           8.366     3.043     4.707  H    
     44 H           6.923     3.232     5.720  H    
     45 H           6.790     3.452     3.969  H    
     46 H           8.208    -0.982     5.788  H    
     47 H           9.903    -0.888     6.278  H    
     48 H           9.459    -1.879     4.881  H    
@<TRIPOS>BOND
     1    1    2 1
     2    2    3 1
     3    3    8 ar
     4    3    4 ar
     5    4    5 ar
     6    5    6 ar
     7    6    7 ar
     8    6    9 1
     9    7    8 ar
    10    9   10 2
    11   10   11 1
    12   11   12 2
    13   11   13 1
    14   13   14 1
    15   14   15 1
    16   15   16 1
    17   16   21 ar
    18   16   17 ar
    19   17   18 ar
    20   18   19 ar
    21   19   20 ar
    22   19   24 1
    23   20   21 ar
    24   20   22 1
    25   22   23 1
    26   24   25 1
    27    1   26 1
    28    1   27 1
    29    1   28 1
    30    4   29 1
    31    5   30 1
    32    7   31 1
    33    8   32 1
    34    9   33 1
    35   10   34 1
    36   13   35 1
    37   14   36 1
    38   14   37 1
    39   15   38 1
    40   15   39 1
    41   17   40 1
    42   18   41 1
    43   21   42 1
    44   23   43 1
    45   23   44 1
    46   23   45 1
    47   25   46 1
    48   25   47 1
    49   25   48 1
@<TRIPOS>MOLECULE
ZINC00116707
 45 46 0 0 0
SMALL
NO_CHARGES


@<TRIPOS>ATOM
      1 C           4.941     0.435     5.574  C    
      2 C           4.186     0.588     4.242  C    
      3 O           3.192     1.624     4.378  O    
      4 C           2.272     1.645     3.364  C    
      5 C           2.592     2.199     2.103  C    
      6 C           1.637     2.243     1.056  C    
      7 C           0.335     1.741     1.322  C    
      8 C           0.008     1.204     2.581  C    
      9 C           0.970     1.153     3.604  C    
     10 O           0.616     0.630     4.809  O    
     11 C           1.997     2.754    -0.190  C    
     12 N           1.165     2.828    -1.164  N    
     13 N           1.410     3.235    -2.303  N    
     14 C           0.538     3.300    -3.260  C    
     15 S          -1.128     2.992    -3.012  S    
     16 N           1.015     3.404    -4.463  N    
     17 C           0.497     4.176    -5.516  C    
     18 C           0.079     3.239    -6.688  C    
     19 C          -0.393     4.040    -7.932  C    
     20 C           0.674     5.070    -8.390  C    
     21 C           1.097     6.009    -7.229  C    
     22 C           1.564     5.209    -5.983  C    
     23 H           5.370     1.393     5.887  H    
     24 H           5.751    -0.296     5.458  H    
     25 H           4.254     0.077     6.353  H    
     26 H           4.905     0.862     3.463  H    
     27 H           3.738    -0.377     3.986  H    
     28 H           3.538     2.564     1.955  H    
     29 H          -0.391     1.752     0.606  H    
     30 H          -0.937     0.845     2.750  H    
     31 H           1.430     0.631     5.359  H    
     32 H           2.934     3.059    -0.336  H    
     33 H           2.295     3.462    -2.506  H    
     34 H           1.846     3.003    -4.617  H    
     35 H          -0.389     4.734    -5.196  H    
     36 H           0.924     2.603    -6.975  H    
     37 H          -0.733     2.582    -6.363  H    
     38 H          -0.603     3.344    -8.750  H    
     39 H          -1.321     4.565    -7.693  H    
     40 H           1.556     4.541    -8.761  H    
     41 H           0.272     5.669    -9.212  H    
     42 H           1.908     6.658    -7.571  H    
     43 H           0.254     6.647    -6.947  H    
     44 H           1.769     5.910    -5.167  H    
     45 H           2.500     4.692    -6.224  H    
@<TRIPOS>BOND
     1    1    2 1
     2    2    3 1
     3    3    4 1
     4    4    9 ar
     5    4    5 ar
     6    5    6 ar
     7    6    7 ar
     8    6   11 1
     9    7    8 ar
    10    8    9 ar
    11    9   10 1
    12   11   12 2
    13   12   13 1
    14   13   14 1
    15   14   15 2
    16   14   16 1
    17   16   17 1
    18   17   22 1
    19   17   18 1
    20   18   19 1
    21   19   20 1
    22   20   21 1
    23   21   22 1
    24    1   23 1
    25    1   24 1
    26    1   25 1
    27    2   26 1
    28    2   27 1
    29    5   28 1
    30    7   29 1
    31    8   30 1
    32   10   31 1
    33   11   32 1
    34   13   33 1
    35   16   34 1
    36   17   35 1
    37   18   36 1
    38   18   37 1
    39   19   38 1
    40   19   39 1
    41   20   40 1
    42   20   41 1
    43   21   42 1
    44   21   43 1
    45   22   44 1
    46   22   45 1
@<TRIPOS>MOLECULE
ZINC00171022
 49 50 0 0 0
SMALL
NO_CHARGES


@<TRIPOS>ATOM
      1 C           3.593    -9.573    -0.494  C    
      2 C           4.989    -8.958    -0.738  C    
      3 O           5.104    -7.557    -0.400  O    
      4 C           4.848    -7.141     0.889  C    
      5 C           5.427    -7.754     2.022  C    
      6 C           5.175    -7.287     3.337  C    
      7 C           4.349    -6.146     3.479  C    
      8 C           3.817    -5.477     2.359  C    
      9 C           4.049    -5.991     1.065  C    
     10 O           3.571    -5.313    -0.026  O    
     11 C           2.220    -5.659    -0.392  C    
     12 C           1.777    -4.773    -1.571  C    
     13 O           3.029    -4.364     2.504  O    
     14 C           3.731    -3.173     2.917  C    
     15 C           2.788    -1.964     2.758  C    
     16 C           5.747    -7.910     4.452  C    
     17 O           5.908    -7.252     5.474  O    
     18 N           6.052    -9.205     4.416  N    
     19 C           6.662   -10.012     5.320  C    
     20 C           7.275    -9.633     6.542  C    
     21 C           7.869   -10.618     7.349  C    
     22 C           7.858   -11.966     6.947  C    
     23 C           7.249   -12.313     5.719  C    
     24 N           6.686   -11.328     4.970  N    
     25 C           7.211   -13.714     5.254  C    
     26 H           3.330    -9.520     0.564  H    
     27 H           3.594   -10.621    -0.798  H    
     28 H           2.839    -9.039    -1.074  H    
     29 H           5.745    -9.546    -0.215  H    
     30 H           5.208    -9.041    -1.806  H    
     31 H           6.066    -8.538     1.880  H    
     32 H           4.133    -5.784     4.412  H    
     33 H           2.167    -6.711    -0.698  H    
     34 H           1.530    -5.505     0.440  H    
     35 H           1.741    -3.726    -1.262  H    
     36 H           0.788    -5.073    -1.912  H    
     37 H           2.479    -4.867    -2.398  H    
     38 H           4.029    -3.255     3.971  H    
     39 H           4.624    -2.996     2.306  H    
     40 H           2.555    -1.803     1.703  H    
     41 H           3.267    -1.061     3.154  H    
     42 H           1.856    -2.136     3.306  H    
     43 H           5.774    -9.664     3.606  H    
     44 H           7.320    -8.661     6.846  H    
     45 H           8.316   -10.349     8.233  H    
     46 H           8.291   -12.676     7.540  H    
     47 H           8.229   -14.098     5.133  H    
     48 H           6.688   -13.795     4.296  H    
     49 H           6.683   -14.330     5.985  H    
@<TRIPOS>BOND
     1    1    2 1
     2    2    3 1
     3    3    4 1
     4    4    9 ar
     5    4    5 ar
     6    5    6 ar
     7    6    7 ar
     8    6   16 1
     9    7    8 ar
    10    8    9 ar
    11    8   13 1
    12    9   10 1
    13   10   11 1
    14   11   12 1
    15   13   14 1
    16   14   15 1
    17   16   17 2
    18   16   18 1
    19   18   19 1
    20   19   24 ar
    21   19   20 ar
    22   20   21 ar
    23   21   22 ar
    24   22   23 ar
    25   23   24 ar
    26   23   25 1
    27    1   26 1
    28    1   27 1
    29    1   28 1
    30    2   29 1
    31    2   30 1
    32    5   31 1
    33    7   32 1
    34   11   33 1
    35   11   34 1
    36   12   35 1
    37   12   36 1
    38   12   37 1
    39   14   38 1
    40   14   39 1
    41   15   40 1
    42   15   41 1
    43   15   42 1
    44   18   43 1
    45   20   44 1
    46   21   45 1
    47   22   46 1
    48   25   47 1
    49   25   48 1
    50   25   49 1
@<TRIPOS>MOLECULE
ZINC00304011
 42 43 0 0 0
SMALL
NO_CHARGES


@<TRIPOS>ATOM
      1 C           4.234    -0.744     0.138  C    
      2 C           5.173    -1.127     1.224  C    
      3 C           6.426    -1.711     0.921  C    
      4 C           7.309    -2.095     1.951  C    
      5 C           6.948    -1.906     3.295  C    
      6 C           5.705    -1.331     3.610  C    
      7 C           4.822    -0.923     2.584  C    
      8 O           3.600    -0.388     2.904  O    
      9 C           3.638     0.975     3.362  C    
     10 C           2.199     1.548     3.421  C    
     11 C           2.165     2.996     3.974  C    
     12 N           0.837     3.524     3.899  N    
     13 C           0.439     4.633     3.278  C    
     14 O           1.246     5.345     2.699  O    
     15 C          -0.914     4.984     3.252  C    
     16 C          -1.859     3.953     3.002  C    
     17 C          -3.225     4.237     2.839  C    
     18 C          -3.677     5.560     2.923  C    
     19 C          -2.765     6.595     3.183  C    
     20 C          -1.383     6.333     3.371  C    
     21 C          -0.546     7.427     3.734  C    
     22 O           0.489     7.260     4.587  O    
     23 O           1.371     0.705     4.228  O    
     24 O          -0.869     8.706     3.433  O    
     25 H           3.291    -1.285     0.259  H    
     26 H           4.628    -0.974    -0.855  H    
     27 H           4.038     0.328     0.186  H    
     28 H           6.707    -1.864    -0.052  H    
     29 H           8.210    -2.518     1.723  H    
     30 H           7.582    -2.194     4.045  H    
     31 H           5.448    -1.211     4.592  H    
     32 H           4.079     1.019     4.361  H    
     33 H           4.237     1.593     2.683  H    
     34 H           1.789     1.549     2.403  H    
     35 H           2.466     2.992     5.025  H    
     36 H           2.884     3.611     3.425  H    
     37 H           0.150     3.013     4.358  H    
     38 H          -1.561     2.978     2.894  H    
     39 H          -3.888     3.484     2.641  H    
     40 H          -4.671     5.768     2.801  H    
     41 H          -3.137     7.547     3.265  H    
     42 H           1.378    -0.165     3.781  H    
@<TRIPOS>BOND
     1    1    2 1
     2    2    7 ar
     3    2    3 ar
     4    3    4 ar
     5    4    5 ar
     6    5    6 ar
     7    6    7 ar
     8    7    8 1
     9    8    9 1
    10    9   10 1
    11   10   11 1
    12   10   23 1
    13   11   12 1
    14   12   13 1
    15   13   14 2
    16   13   15 1
    17   15   20 ar
    18   15   16 ar
    19   16   17 ar
    20   17   18 ar
    21   18   19 ar
    22   19   20 ar
    23   20   21 1
    24   21   22 2
    25   21   24 1
    26    1   25 1
    27    1   26 1
    28    1   27 1
    29    3   28 1
    30    4   29 1
    31    5   30 1
    32    6   31 1
    33    9   32 1
    34    9   33 1
    35   10   34 1
    36   11   35 1
    37   11   36 1
    38   12   37 1
    39   16   38 1
    40   17   39 1
    41   18   40 1
    42   19   41 1
    43   23   42 1
@<TRIPOS>MOLECULE
ZINC00322714
 49 50 0 0 0
SMALL
NO_CHARGES


@<TRIPOS>ATOM
      1 C           7.648    -6.950     0.151  C    
      2 C           6.921    -8.150     0.795  C    
      3 C           5.546    -7.766     1.424  C    
      4 C           4.800    -8.855     2.074  C    
      5 O           5.059    -9.976     1.646  O    
      6 N           3.832    -8.706     3.017  N    
      7 C           3.407    -7.375     3.460  C    
      8 C           2.743    -6.579     2.407  C    
      9 N           3.219    -5.437     1.866  N    
     10 C           2.448    -4.861     0.905  C    
     11 C           1.261    -5.556     0.633  C    
     12 S           1.230    -6.928     1.663  S    
     13 C           2.871    -3.699     0.241  C    
     14 O           2.069    -3.097    -0.669  O    
     15 O           4.114    -3.206     0.491  O    
     16 C           4.711    -2.059    -0.116  C    
     17 C           6.153    -1.877     0.387  C    
     18 C           3.229    -9.877     3.685  C    
     19 C           1.679    -9.982     3.513  C    
     20 C           1.107   -11.266     4.178  C    
     21 C           1.523   -11.377     5.668  C    
     22 C           3.060   -11.264     5.855  C    
     23 C           3.625    -9.978     5.194  C    
     24 H           7.043    -6.531    -0.660  H    
     25 H           8.606    -7.279    -0.259  H    
     26 H           7.836    -6.170     0.896  H    
     27 H           6.779    -8.914     0.026  H    
     28 H           7.563    -8.570     1.575  H    
     29 H           5.757    -6.984     2.153  H    
     30 H           4.912    -7.348     0.638  H    
     31 H           2.701    -7.411     4.291  H    
     32 H           4.271    -6.835     3.849  H    
     33 H           0.547    -5.314    -0.057  H    
     34 H           4.730    -2.192    -1.198  H    
     35 H           4.124    -1.173     0.127  H    
     36 H           6.160    -1.675     1.463  H    
     37 H           6.623    -1.037    -0.128  H    
     38 H           6.737    -2.778     0.194  H    
     39 H           3.607   -10.806     3.247  H    
     40 H           1.178    -9.117     3.958  H    
     41 H           1.433   -10.000     2.445  H    
     42 H           0.015   -11.257     4.107  H    
     43 H           1.470   -12.145     3.637  H    
     44 H           1.032   -10.584     6.239  H    
     45 H           1.183   -12.337     6.065  H    
     46 H           3.295   -11.260     6.923  H    
     47 H           3.541   -12.141     5.410  H    
     48 H           4.718    -9.989     5.279  H    
     49 H           3.256    -9.111     5.753  H    
@<TRIPOS>BOND
     1    1    2 1
     2    2    3 1
     3    3    4 1
     4    4    5 2
     5    4    6 1
     6    6    7 1
     7    6   18 1
     8    7    8 1
     9    8   12 1
    10    8    9 2
    11    9   10 1
    12   10   11 2
    13   10   13 1
    14   11   12 1
    15   13   14 2
    16   13   15 1
    17   15   16 1
    18   16   17 1
    19   18   23 1
    20   18   19 1
    21   19   20 1
    22   20   21 1
    23   21   22 1
    24   22   23 1
    25    1   24 1
    26    1   25 1
    27    1   26 1
    28    2   27 1
    29    2   28 1
    30    3   29 1
    31    3   30 1
    32    7   31 1
    33    7   32 1
    34   11   33 1
    35   16   34 1
    36   16   35 1
    37   17   36 1
    38   17   37 1
    39   17   38 1
    40   18   39 1
    41   19   40 1
    42   19   41 1
    43   20   42 1
    44   20   43 1
    45   21   44 1
    46   21   45 1
    47   22   46 1
    48   22   47 1
    49   23   48 1
    50   23   49 1
@<TRIPOS>MOLECULE
ZINC00441560
 44 45 0 0 0
SMALL
NO_CHARGES


@<TRIPOS>ATOM
      1 C          -1.293    -2.393    -5.662  C    
      2 O          -0.584    -1.818    -4.561  O    
      3 C           0.757    -1.872    -4.341  C    
      4 O           1.531    -2.530    -5.241  O    
      5 C           1.332    -1.235    -3.207  C    
      6 C           0.519    -0.608    -2.235  C    
      7 C           1.086     0.044    -1.130  C    
      8 C           2.486     0.095    -0.952  C    
      9 C           3.319    -0.578    -1.892  C    
     10 C           2.733    -1.204    -3.015  C    
     11 N           4.683    -0.675    -1.808  N    
     12 C           5.404    -1.078    -0.767  C    
     13 O           4.872    -1.419     0.283  O    
     14 C           6.848    -1.165    -0.929  C    
     15 C           7.645    -1.614     0.331  C    
     16 C           9.114    -1.692     0.097  C    
     17 C           9.793    -2.934     0.105  C    
     18 C          11.184    -2.994    -0.101  C    
     19 C          11.912    -1.812    -0.316  C    
     20 C          11.254    -0.570    -0.319  C    
     21 C           9.865    -0.511    -0.112  C    
     22 C           2.999     0.870     0.120  C    
     23 O           4.154     1.572    -0.034  O    
     24 O           2.336     0.931     1.308  O    
     25 C           2.743     1.661     2.468  C    
     26 H          -0.944    -1.957    -6.601  H    
     27 H          -2.358    -2.186    -5.547  H    
     28 H          -1.144    -3.476    -5.685  H    
     29 H          -0.499    -0.608    -2.329  H    
     30 H           0.460     0.519    -0.473  H    
     31 H           3.347    -1.666    -3.692  H    
     32 H           5.170    -0.569    -2.640  H    
     33 H           7.058    -1.871    -1.739  H    
     34 H           7.207    -0.179    -1.239  H    
     35 H           7.459    -0.909     1.148  H    
     36 H           7.260    -2.590     0.650  H    
     37 H           9.281    -3.805     0.253  H    
     38 H          11.664    -3.896    -0.096  H    
     39 H          12.922    -1.855    -0.469  H    
     40 H          11.784     0.291    -0.471  H    
     41 H           9.403     0.400    -0.112  H    
     42 H           3.716     1.302     2.816  H    
     43 H           2.007     1.506     3.261  H    
     44 H           2.807     2.731     2.245  H    
@<TRIPOS>BOND
     1    1    2 1
     2    2    3 1
     3    3    4 2
     4    3    5 1
     5    5   10 ar
     6    5    6 ar
     7    6    7 ar
     8    7    8 ar
     9    8    9 ar
    10    8   22 1
    11    9   10 ar
    12    9   11 1
    13   11   12 1
    14   12   13 2
    15   12   14 1
    16   14   15 1
    17   15   16 1
    18   16   21 ar
    19   16   17 ar
    20   17   18 ar
    21   18   19 ar
    22   19   20 ar
    23   20   21 ar
    24   22   23 2
    25   22   24 1
    26   24   25 1
    27    1   26 1
    28    1   27 1
    29    1   28 1
    30    6   29 1
    31    7   30 1
    32   10   31 1
    33   11   32 1
    34   14   33 1
    35   14   34 1
    36   15   35 1
    37   15   36 1
    38   17   37 1
    39   18   38 1
    40   19   39 1
    41   20   40 1
    42   21   41 1
    43   25   42 1
    44   25   43 1
    45   25   44 1
@<TRIPOS>MOLECULE
ZINC00455893
 43 44 0 0 0
SMALL
NO_CHARGES


@<TRIPOS>ATOM
      1 C           6.313    -9.694    -6.320  C    
      2 C           6.301    -8.874    -5.008  C    
      3 C           5.399    -9.340    -3.967  C    
      4 O           4.610   -10.249    -4.194  O    
      5 N           5.415    -8.690    -2.808  N    
      6 C           4.698    -8.916    -1.660  C    
      7 C           4.174   -10.170    -1.268  C    
      8 C           3.477   -10.307    -0.055  C    
      9 C           3.295    -9.192     0.779  C    
     10 C           3.797    -7.917     0.415  C    
     11 C           4.523    -7.809    -0.795  C    
     12 N           3.674    -6.784     1.158  N    
     13 C           2.993    -6.561     2.281  C    
     14 S           1.366    -7.070     2.427  S    
     15 N           3.448    -5.547     3.025  N    
     16 C           3.205    -5.262     4.300  C    
     17 O           2.537    -6.013     5.009  O    
     18 C           3.839    -4.081     4.860  C    
     19 C           3.633    -3.859     6.321  C    
     20 C           2.832    -2.793     6.795  C    
     21 C           2.628    -2.610     8.176  C    
     22 C           3.227    -3.484     9.101  C    
     23 C           4.040    -4.538     8.645  C    
     24 C           4.240    -4.724     7.263  C    
     25 H           6.580   -10.733    -6.114  H    
     26 H           7.047    -9.276    -7.014  H    
     27 H           5.328    -9.663    -6.795  H    
     28 H           7.319    -8.880    -4.607  H    
     29 H           6.041    -7.838    -5.256  H    
     30 H           5.999    -7.916    -2.779  H    
     31 H           4.324   -11.003    -1.840  H    
     32 H           3.109   -11.221     0.225  H    
     33 H           2.817    -9.331     1.670  H    
     34 H           4.910    -6.900    -1.067  H    
     35 H           4.203    -6.037     0.848  H    
     36 H           4.083    -4.959     2.587  H    
     37 H           4.917    -4.145     4.687  H    
     38 H           3.473    -3.216     4.296  H    
     39 H           2.388    -2.146     6.140  H    
     40 H           2.041    -1.842     8.507  H    
     41 H           3.076    -3.354    10.102  H    
     42 H           4.484    -5.169     9.314  H    
     43 H           4.834    -5.495     6.947  H    
@<TRIPOS>BOND
     1    1    2 1
     2    2    3 1
     3    3    4 2
     4    3    5 1
     5    5    6 1
     6    6   11 ar
     7    6    7 ar
     8    7    8 ar
     9    8    9 ar
    10    9   10 ar
    11   10   11 ar
    12   10   12 1
    13   12   13 1
    14   13   14 2
    15   13   15 1
    16   15   16 1
    17   16   17 2
    18   16   18 1
    19   18   19 1
    20   19   24 ar
    21   19   20 ar
    22   20   21 ar
    23   21   22 ar
    24   22   23 ar
    25   23   24 ar
    26    1   25 1
    27    1   26 1
    28    1   27 1
    29    2   28 1
    30    2   29 1
    31    5   30 1
    32    7   31 1
    33    8   32 1
    34    9   33 1
    35   11   34 1
    36   12   35 1
    37   15   36 1
    38   18   37 1
    39   18   38 1
    40   20   39 1
    41   21   40 1
    42   22   41 1
    43   23   42 1
    44   24   43 1
@<TRIPOS>MOLECULE
ZINC00625424
 60 63 0 0 0
SMALL
NO_CHARGES


@<TRIPOS>ATOM
      1 C          -2.959    -7.649     4.129  C    
      2 C          -3.308    -6.285     3.683  C    
      3 C          -2.314    -5.320     3.402  C    
      4 C          -2.668    -4.023     2.987  C    
      5 C          -4.030    -3.649     2.857  C    
      6 C          -5.018    -4.627     3.119  C    
      7 C          -4.666    -5.924     3.530  C    
      8 N          -4.496    -2.412     2.496  N    
      9 C          -3.899    -1.227     2.448  C    
     10 O          -2.715    -1.070     2.724  O    
     11 C          -4.725    -0.080     2.110  C    
     12 S          -3.957     1.557     2.276  S    
     13 C          -3.809     1.701     4.013  C    
     14 N          -4.013     0.702     4.885  N    
     15 C          -3.816     1.154     6.105  C    
     16 C          -3.939     0.436     7.239  C    
     17 C          -4.175    -0.940     7.358  C    
     18 C          -3.745    -1.894     6.399  C    
     19 C          -3.998    -3.265     6.574  C    
     20 C          -4.657    -3.730     7.730  C    
     21 C          -5.067    -2.803     8.713  C    
     22 C          -4.833    -1.424     8.516  C    
     23 O          -5.759    -3.236     9.812  O    
     24 C          -4.966    -3.288    11.013  C    
     25 O          -4.965    -5.059     7.873  O    
     26 C          -3.838    -5.903     8.185  C    
     27 C          -3.521     2.466     6.000  C    
     28 O          -3.241     3.204     6.941  O    
     29 N          -3.490     2.808     4.722  N    
     30 C          -3.181     4.050     4.223  C    
     31 C          -2.131     4.215     3.293  C    
     32 C          -1.806     5.490     2.792  C    
     33 C          -2.526     6.618     3.219  C    
     34 C          -3.572     6.471     4.146  C    
     35 C          -3.895     5.196     4.647  C    
     36 H          -3.407    -7.844     5.104  H    
     37 H          -1.878    -7.790     4.217  H    
     38 H          -3.344    -8.377     3.411  H    
     39 H          -1.321    -5.555     3.494  H    
     40 H          -1.913    -3.367     2.775  H    
     41 H          -6.013    -4.396     3.027  H    
     42 H          -5.409    -6.604     3.723  H    
     43 H          -5.448    -2.385     2.303  H    
     44 H          -5.030    -0.184     1.066  H    
     45 H          -5.633    -0.086     2.722  H    
     46 H          -3.883     0.949     8.093  H    
     47 H          -3.216    -1.611     5.573  H    
     48 H          -3.695    -3.930     5.861  H    
     49 H          -5.165    -0.770     9.232  H    
     50 H          -4.121    -3.970    10.900  H    
     51 H          -5.598    -3.659    11.825  H    
     52 H          -4.595    -2.297    11.292  H    
     53 H          -3.117    -5.927     7.369  H    
     54 H          -4.203    -6.920     8.337  H    
     55 H          -3.338    -5.576     9.099  H    
     56 H          -1.586     3.407     2.984  H    
     57 H          -1.047     5.596     2.118  H    
     58 H          -2.291     7.545     2.855  H    
     59 H          -4.099     7.292     4.455  H    
     60 H          -4.665     5.106     5.317  H    
@<TRIPOS>BOND
     1    1    2 1
     2    2    7 ar
     3    2    3 ar
     4    3    4 ar
     5    4    5 ar
     6    5    6 ar
     7    5    8 1
     8    6    7 ar
     9    8    9 1
    10    9   10 2
    11    9   11 1
    12   11   12 1
    13   12   13 1
    14   13   29 1
    15   13   14 2
    16   14   15 1
    17   15   16 2
    18   15   27 1
    19   16   17 1
    20   17   22 ar
    21   17   18 ar
    22   18   19 ar
    23   19   20 ar
    24   20   21 ar
    25   20   25 1
    26   21   22 ar
    27   21   23 1
    28   23   24 1
    29   25   26 1
    30   27   28 2
    31   27   29 1
    32   29   30 1
    33   30   35 ar
    34   30   31 ar
    35   31   32 ar
    36   32   33 ar
    37   33   34 ar
    38   34   35 ar
    39    1   36 1
    40    1   37 1
    41    1   38 1
    42    3   39 1
    43    4   40 1
    44    6   41 1
    45    7   42 1
    46    8   43 1
    47   11   44 1
    48   11   45 1
    49   16   46 1
    50   18   47 1
    51   19   48 1
    52   22   49 1
    53   24   50 1
    54   24   51 1
    55   24   52 1
    56   26   53 1
    57   26   54 1
    58   26   55 1
    59   31   56 1
    60   32   57 1
    61   33   58 1
    62   34   59 1
    63   35   60 1
@<TRIPOS>MOLECULE
ZINC00637538
 59 61 0 0 0
SMALL
NO_CHARGES


@<TRIPOS>ATOM
      1 C           9.481     0.924     5.293  C    
      2 C           9.338    -0.451     4.600  C    
      3 C           9.523    -1.674     5.546  C    
      4 C          10.973    -1.821     6.078  C    
      5 N           9.190    -2.871     4.831  N    
      6 C           8.327    -3.837     5.234  C    
      7 N           7.619    -3.794     6.381  N    
      8 C           6.910    -4.927     6.467  C    
      9 C           7.196    -5.696     5.346  C    
     10 N           8.062    -4.993     4.576  N    
     11 C           8.610    -5.387     3.303  C    
     12 C           7.556    -5.312     2.164  C    
     13 C           8.127    -5.778     0.805  C    
     14 O           7.023    -6.064    -0.080  O    
     15 C           7.350    -6.281    -1.395  C    
     16 C           8.203    -7.342    -1.777  C    
     17 C           8.490    -7.572    -3.132  C    
     18 C           7.897    -6.768    -4.123  C    
     19 C           7.021    -5.728    -3.755  C    
     20 C           6.737    -5.473    -2.394  C    
     21 C           5.798    -4.386    -2.015  C    
     22 O           7.071    -3.979     2.013  O    
     23 C           6.597    -6.951     5.275  C    
     24 O           6.895    -7.669     4.328  O    
     25 N           5.759    -7.377     6.249  N    
     26 C           5.489    -6.577     7.315  C    
     27 O           4.723    -6.967     8.190  O    
     28 N           6.047    -5.354     7.451  N    
     29 C           5.793    -4.459     8.562  C    
     30 C           5.172    -8.708     6.128  C    
     31 H           8.767     1.011     6.119  H    
     32 H           9.280     1.716     4.575  H    
     33 H          10.490     1.063     5.685  H    
     34 H           8.337    -0.498     4.160  H    
     35 H          10.061    -0.510     3.780  H    
     36 H           8.864    -1.541     6.412  H    
     37 H          11.685    -1.891     5.249  H    
     38 H          11.060    -2.724     6.690  H    
     39 H          11.241    -0.965     6.700  H    
     40 H           9.659    -3.022     3.999  H    
     41 H           9.455    -4.755     3.020  H    
     42 H           9.007    -6.401     3.388  H    
     43 H           6.706    -5.949     2.413  H    
     44 H           8.779    -4.999     0.396  H    
     45 H           8.721    -6.683     0.952  H    
     46 H           8.614    -7.951    -1.068  H    
     47 H           9.122    -8.331    -3.398  H    
     48 H           8.094    -6.949    -5.107  H    
     49 H           6.593    -5.162    -4.494  H    
     50 H           4.960    -4.806    -1.447  H    
     51 H           5.391    -3.865    -2.887  H    
     52 H           6.317    -3.651    -1.391  H    
     53 H           6.655    -3.763     2.874  H    
     54 H           6.729    -4.243     9.082  H    
     55 H           5.095    -4.858     9.302  H    
     56 H           5.371    -3.523     8.190  H    
     57 H           4.585    -8.768     5.204  H    
     58 H           4.512    -8.995     6.947  H    
     59 H           5.973    -9.458     6.087  H    
@<TRIPOS>BOND
     1    1    2 1
     2    2    3 1
     3    3    4 1
     4    3    5 1
     5    5    6 1
     6    6   10 1
     7    6    7 2
     8    7    8 1
     9    8   28 1
    10    8    9 2
    11    9   10 1
    12    9   23 1
    13   10   11 1
    14   11   12 1
    15   12   13 1
    16   12   22 1
    17   13   14 1
    18   14   15 1
    19   15   20 ar
    20   15   16 ar
    21   16   17 ar
    22   17   18 ar
    23   18   19 ar
    24   19   20 ar
    25   20   21 1
    26   23   24 2
    27   23   25 1
    28   25   26 1
    29   25   30 1
    30   26   27 2
    31   26   28 1
    32   28   29 1
    33    1   31 1
    34    1   32 1
    35    1   33 1
    36    2   34 1
    37    2   35 1
    38    3   36 1
    39    4   37 1
    40    4   38 1
    41    4   39 1
    42    5   40 1
    43   11   41 1
    44   11   42 1
    45   12   43 1
    46   13   44 1
    47   13   45 1
    48   16   46 1
    49   17   47 1
    50   18   48 1
    51   19   49 1
    52   21   50 1
    53   21   51 1
    54   21   52 1
    55   22   53 1
    56   29   54 1
    57   29   55 1
    58   29   56 1
    59   30   57 1
    60   30   58 1
    61   30   59 1
@<TRIPOS>MOLECULE
ZINC00667557
 54 56 0 0 0
SMALL
NO_CHARGES


@<TRIPOS>ATOM
      1 C           5.465     7.068    -3.129  C    
      2 C           4.853     6.035    -2.150  C    
      3 N           3.959     5.071    -2.785  N    
      4 C           2.530     5.212    -2.516  C    
      5 C           1.918     6.497    -3.121  C    
      6 C           4.466     4.091    -3.565  C    
      7 O           5.662     4.051    -3.827  O    
      8 C           3.766     3.024    -4.100  C    
      9 C           3.575     2.678    -5.454  C    
     10 C           2.857     1.462    -5.642  C    
     11 C           2.487     0.822    -4.439  C    
     12 S           3.043     1.796    -3.142  S    
     13 N           1.837    -0.344    -4.173  N    
     14 C           1.978    -1.516    -4.780  C    
     15 O           2.854    -1.690    -5.619  O    
     16 C           1.254    -2.614    -4.317  C    
     17 C           1.978    -3.786    -3.984  C    
     18 C           1.336    -4.914    -3.453  C    
     19 C          -0.049    -4.901    -3.247  C    
     20 C          -0.809    -3.761    -3.584  C    
     21 C          -0.166    -2.606    -4.134  C    
     22 C          -0.991    -1.512    -4.511  C    
     23 C          -2.383    -1.539    -4.318  C    
     24 C          -2.992    -2.668    -3.752  C    
     25 C          -2.210    -3.776    -3.389  C    
     26 C           2.490     0.939    -6.901  C    
     27 O           1.246     0.434    -7.084  O    
     28 O           3.404     0.880    -7.906  O    
     29 C           3.186     0.340    -9.211  C    
     30 C           4.026     3.599    -6.531  C    
     31 H           6.097     6.582    -3.872  H    
     32 H           6.078     7.781    -2.574  H    
     33 H           4.677     7.618    -3.645  H    
     34 H           5.664     5.504    -1.642  H    
     35 H           4.338     6.603    -1.370  H    
     36 H           1.937     4.388    -2.912  H    
     37 H           2.364     5.211    -1.435  H    
     38 H           2.335     7.388    -2.651  H    
     39 H           0.837     6.503    -2.964  H    
     40 H           2.114     6.534    -4.194  H    
     41 H           1.276    -0.342    -3.381  H    
     42 H           2.995    -3.824    -4.099  H    
     43 H           1.880    -5.744    -3.207  H    
     44 H          -0.497    -5.734    -2.855  H    
     45 H          -0.596    -0.681    -4.954  H    
     46 H          -2.955    -0.739    -4.599  H    
     47 H          -4.006    -2.688    -3.614  H    
     48 H          -2.675    -4.598    -2.993  H    
     49 H           2.936    -0.720    -9.142  H    
     50 H           4.099     0.453    -9.797  H    
     51 H           2.376     0.874    -9.710  H    
     52 H           3.684     4.613    -6.317  H    
     53 H           3.636     3.331    -7.510  H    
     54 H           5.116     3.598    -6.580  H    
@<TRIPOS>BOND
     1    1    2 1
     2    2    3 1
     3    3    4 1
     4    3    6 1
     5    4    5 1
     6    6    7 2
     7    6    8 1
     8    8   12 1
     9    8    9 2
    10    9   10 1
    11    9   30 1
    12   10   11 2
    13   10   26 1
    14   11   12 1
    15   11   13 1
    16   13   14 1
    17   14   15 2
    18   14   16 1
    19   16   21 ar
    20   16   17 ar
    21   17   18 ar
    22   18   19 ar
    23   19   20 ar
    24   20   25 ar
    25   20   21 ar
    26   21   22 ar
    27   22   23 ar
    28   23   24 ar
    29   24   25 ar
    30   26   27 2
    31   26   28 1
    32   28   29 1
    33    1   31 1
    34    1   32 1
    35    1   33 1
    36    2   34 1
    37    2   35 1
    38    4   36 1
    39    4   37 1
    40    5   38 1
    41    5   39 1
    42    5   40 1
    43   13   41 1
    44   17   42 1
    45   18   43 1
    46   19   44 1
    47   22   45 1
    48   23   46 1
    49   24   47 1
    50   25   48 1
    51   29   49 1
    52   29   50 1
    53   29   51 1
    54   30   52 1
    55   30   53 1
    56   30   54 1
@<TRIPOS>MOLECULE
ZINC00677343
 58 61 0 0 0
SMALL
NO_CHARGES


@<TRIPOS>ATOM
      1 C           2.801     1.112    -7.179  C    
      2 C           3.064    -0.339    -6.736  C    
      3 O           3.501    -0.339    -5.364  O    
      4 C           3.768    -1.590    -4.878  C    
      5 C           2.766    -2.295    -4.180  C    
      6 C           3.009    -3.583    -3.638  C    
      7 C           4.310    -4.126    -3.790  C    
      8 C           5.318    -3.424    -4.474  C    
      9 C           5.058    -2.147    -5.005  C    
     10 O           6.035    -1.471    -5.683  O    
     11 C           6.892    -0.683    -4.834  C    
     12 C           7.873     0.035    -5.681  C    
     13 C           8.788    -0.697    -6.474  C    
     14 C           9.730    -0.034    -7.282  C    
     15 C           9.772     1.372    -7.303  C    
     16 C           8.870     2.113    -6.519  C    
     17 C           7.926     1.449    -5.713  C    
     18 C           2.049    -4.316    -2.931  C    
     19 C           0.713    -4.272    -3.082  C    
     20 C          -0.205    -4.983    -2.365  C    
     21 O           0.016    -5.820    -1.327  O    
     22 O          -1.417    -4.701    -2.875  O    
     23 C          -1.207    -3.849    -3.870  C    
     24 N           0.051    -3.619    -3.971  N    
     25 C          -2.203    -3.306    -4.678  C    
     26 C          -1.898    -2.397    -5.720  C    
     27 C          -2.913    -1.858    -6.533  C    
     28 C          -4.268    -2.217    -6.338  C    
     29 C          -4.573    -3.108    -5.287  C    
     30 C          -3.560    -3.648    -4.473  C    
     31 N          -5.333    -1.743    -7.058  N    
     32 C          -5.386    -1.142    -8.241  C    
     33 O          -4.402    -0.953    -8.943  O    
     34 C          -6.682    -0.742    -8.742  C    
     35 H           2.006     1.551    -6.572  H    
     36 H           2.496     1.133    -8.226  H    
     37 H           3.706     1.711    -7.063  H    
     38 H           2.140    -0.915    -6.850  H    
     39 H           3.832    -0.767    -7.389  H    
     40 H           1.864    -1.836    -4.050  H    
     41 H           4.535    -5.051    -3.413  H    
     42 H           6.245    -3.842    -4.580  H    
     43 H           6.297     0.023    -4.247  H    
     44 H           7.439    -1.325    -4.138  H    
     45 H           8.773    -1.721    -6.468  H    
     46 H          10.386    -0.573    -7.852  H    
     47 H          10.457     1.855    -7.889  H    
     48 H           8.901     3.136    -6.533  H    
     49 H           7.278     2.006    -5.150  H    
     50 H           2.395    -4.978    -2.271  H    
     51 H          -0.931    -2.110    -5.896  H    
     52 H          -2.645    -1.185    -7.251  H    
     53 H          -5.544    -3.379    -5.108  H    
     54 H          -3.830    -4.296    -3.728  H    
     55 H          -6.199    -1.902    -6.649  H    
     56 H          -7.331    -1.616    -8.826  H    
     57 H          -6.610    -0.272    -9.726  H    
     58 H          -7.138    -0.027    -8.054  H    
@<TRIPOS>BOND
     1    1    2 1
     2    2    3 1
     3    3    4 1
     4    4    9 ar
     5    4    5 ar
     6    5    6 ar
     7    6    7 ar
     8    6   18 1
     9    7    8 ar
    10    8    9 ar
    11    9   10 1
    12   10   11 1
    13   11   12 1
    14   12   17 ar
    15   12   13 ar
    16   13   14 ar
    17   14   15 ar
    18   15   16 ar
    19   16   17 ar
    20   18   19 2
    21   19   24 1
    22   19   20 1
    23   20   21 2
    24   20   22 1
    25   22   23 1
    26   23   24 2
    27   23   25 1
    28   25   30 ar
    29   25   26 ar
    30   26   27 ar
    31   27   28 ar
    32   28   29 ar
    33   28   31 1
    34   29   30 ar
    35   31   32 1
    36   32   33 2
    37   32   34 1
    38    1   35 1
    39    1   36 1
    40    1   37 1
    41    2   38 1
    42    2   39 1
    43    5   40 1
    44    7   41 1
    45    8   42 1
    46   11   43 1
    47   11   44 1
    48   13   45 1
    49   14   46 1
    50   15   47 1
    51   16   48 1
    52   17   49 1
    53   18   50 1
    54   26   51 1
    55   27   52 1
    56   29   53 1
    57   30   54 1
    58   31   55 1
    59   34   56 1
    60   34   57 1
    61   34   58 1
@<TRIPOS>MOLECULE
ZINC00787250
 63 65 0 0 0
SMALL
NO_CHARGES


@<TRIPOS>ATOM
      1 C          -9.430     7.595    -1.236  C    
      2 C          -8.051     7.132    -0.968  C    
      3 C          -7.392     7.435     0.245  C    
      4 C          -6.083     6.977     0.488  C    
      5 C          -5.405     6.212    -0.484  C    
      6 C          -6.056     5.908    -1.697  C    
      7 C          -7.365     6.366    -1.935  C    
      8 S          -3.791     5.638    -0.180  S    
      9 O          -2.959     6.889     0.345  O    
     10 O          -3.029     5.264    -1.527  O    
     11 N          -3.683     4.353     0.916  N    
     12 C          -2.864     4.453     2.103  C    
     13 C          -3.461     5.351     3.226  C    
     14 C          -2.512     5.486     4.451  C    
     15 C          -2.334     5.951     6.894  C    
     16 C          -3.037     6.574     8.126  C    
     17 C          -4.090     8.265     6.657  C    
     18 C          -3.379     7.641     5.430  C    
     19 C          -3.914     8.682     9.097  C    
     20 O          -4.705     4.815     3.670  O    
     21 C          -4.111     3.128     0.482  C    
     22 C          -3.217     2.291    -0.228  C    
     23 C          -3.596     0.988    -0.596  C    
     24 C          -4.867     0.501    -0.246  C    
     25 C          -5.760     1.321     0.463  C    
     26 C          -5.404     2.646     0.812  C    
     27 O          -6.242     3.437     1.552  O    
     28 C          -7.568     3.663     1.036  C    
     29 N          -3.117     6.180     5.638  N    
     30 N          -3.305     8.027     7.907  N    
     31 H          -9.444     8.209    -2.140  H    
     32 H          -9.831     8.189    -0.414  H    
     33 H         -10.084     6.732    -1.386  H    
     34 H          -7.860     7.989     0.969  H    
     35 H          -5.629     7.207     1.375  H    
     36 H          -5.591     5.350    -2.411  H    
     37 H          -7.821     6.132    -2.818  H    
     38 H          -2.689     3.462     2.536  H    
     39 H          -1.885     4.839     1.818  H    
     40 H          -3.643     6.346     2.825  H    
     41 H          -2.220     4.475     4.742  H    
     42 H          -1.601     6.010     4.143  H    
     43 H          -1.330     6.382     6.801  H    
     44 H          -2.227     4.880     7.073  H    
     45 H          -3.971     6.033     8.317  H    
     46 H          -2.383     6.442     8.993  H    
     47 H          -4.196     9.341     6.482  H    
     48 H          -5.092     7.833     6.747  H    
     49 H          -4.030     7.803     4.570  H    
     50 H          -2.441     8.176     5.249  H    
     51 H          -4.891     8.248     9.335  H    
     52 H          -4.043     9.755     8.918  H    
     53 H          -3.259     8.571     9.968  H    
     54 H          -5.308     4.917     2.907  H    
     55 H          -2.279     2.620    -0.463  H    
     56 H          -2.946     0.389    -1.108  H    
     57 H          -5.136    -0.455    -0.495  H    
     58 H          -6.667     0.939     0.740  H    
     59 H          -7.551     3.976    -0.011  H    
     60 H          -8.020     4.463     1.624  H    
     61 H          -8.197     2.777     1.140  H    
     62 H          -4.031     5.742     5.795  H    
     63 H          -2.393     8.472     7.773  H    
@<TRIPOS>BOND
     1    1    2 1
     2    2    7 ar
     3    2    3 ar
     4    3    4 ar
     5    4    5 ar
     6    5    6 ar
     7    5    8 1
     8    6    7 ar
     9    8    9 2
    10    8   10 2
    11    8   11 1
    12   11   12 1
    13   11   21 1
    14   12   13 1
    15   13   14 1
    16   13   20 1
    17   14   29 1
    18   15   16 1
    19   15   29 1
    20   16   30 1
    21   17   18 1
    22   17   30 1
    23   18   29 1
    24   19   30 1
    25   21   26 ar
    26   21   22 ar
    27   22   23 ar
    28   23   24 ar
    29   24   25 ar
    30   25   26 ar
    31   26   27 1
    32   27   28 1
    33    1   31 1
    34    1   32 1
    35    1   33 1
    36    3   34 1
    37    4   35 1
    38    6   36 1
    39    7   37 1
    40   12   38 1
    41   12   39 1
    42   13   40 1
    43   14   41 1
    44   14   42 1
    45   15   43 1
    46   15   44 1
    47   16   45 1
    48   16   46 1
    49   17   47 1
    50   17   48 1
    51   18   49 1
    52   18   50 1
    53   19   51 1
    54   19   52 1
    55   19   53 1
    56   20   54 1
    57   22   55 1
    58   23   56 1
    59   24   57 1
    60   25   58 1
    61   28   59 1
    62   28   60 1
    63   28   61 1
    64   29   62 1
    65   30   63 1
@<TRIPOS>MOLECULE
ZINC00804702
 46 48 0 0 0
SMALL
NO_CHARGES


@<TRIPOS>ATOM
      1 C           2.269    -7.315    -5.172  C    
      2 O           2.154    -6.806    -3.832  O    
      3 C           2.840    -5.638    -3.634  C    
      4 C           2.182    -4.406    -3.815  C    
      5 C           2.865    -3.197    -3.589  C    
      6 C           4.212    -3.198    -3.159  C    
      7 C           4.862    -4.439    -2.976  C    
      8 C           4.179    -5.655    -3.189  C    
      9 O           4.839    -6.844    -3.032  O    
     10 C           4.788    -7.346    -1.684  C    
     11 C           4.924    -1.913    -2.912  C    
     12 C           4.341    -1.164    -1.816  C    
     13 N           3.801    -0.016    -1.975  N    
     14 N           3.333     0.499    -0.929  N    
     15 C           3.499    -0.271     0.154  C    
     16 S           4.325    -1.743    -0.211  S    
     17 N           3.089    -0.003     1.415  N    
     18 C           2.445     1.073     1.853  C    
     19 O           2.152     2.005     1.115  O    
     20 C           2.049     1.168     3.242  C    
     21 O           2.715     2.296     3.843  O    
     22 C           2.308     2.549     5.125  C    
     23 C           2.912     1.892     6.218  C    
     24 C           2.495     2.173     7.533  C    
     25 C           1.482     3.123     7.765  C    
     26 C           0.891     3.795     6.676  C    
     27 C           1.308     3.513     5.363  C    
     28 Cl          0.980     3.457     9.345  Cl   
     29 H           1.880    -6.600    -5.906  H    
     30 H           1.674    -8.229    -5.236  H    
     31 H           3.306    -7.562    -5.418  H    
     32 H           1.205    -4.386    -4.118  H    
     33 H           2.369    -2.316    -3.734  H    
     34 H           5.839    -4.467    -2.676  H    
     35 H           5.298    -6.673    -0.987  H    
     36 H           5.299    -8.307    -1.664  H    
     37 H           3.755    -7.504    -1.354  H    
     38 H           5.977    -2.083    -2.673  H    
     39 H           4.898    -1.325    -3.834  H    
     40 H           3.283    -0.684     2.077  H    
     41 H           0.960     1.288     3.281  H    
     42 H           2.312     0.253     3.783  H    
     43 H           3.650     1.204     6.055  H    
     44 H           2.934     1.682     8.316  H    
     45 H           0.159     4.489     6.834  H    
     46 H           0.878     4.006     4.577  H    
@<TRIPOS>BOND
     1    1    2 1
     2    2    3 1
     3    3    8 ar
     4    3    4 ar
     5    4    5 ar
     6    5    6 ar
     7    6    7 ar
     8    6   11 1
     9    7    8 ar
    10    8    9 1
    11    9   10 1
    12   11   12 1
    13   12   16 1
    14   12   13 2
    15   13   14 1
    16   14   15 2
    17   15   16 1
    18   15   17 1
    19   17   18 1
    20   18   19 2
    21   18   20 1
    22   20   21 1
    23   21   22 1
    24   22   27 ar
    25   22   23 ar
    26   23   24 ar
    27   24   25 ar
    28   25   26 ar
    29   25   28 1
    30   26   27 ar
    31    1   29 1
    32    1   30 1
    33    1   31 1
    34    4   32 1
    35    5   33 1
    36    7   34 1
    37   10   35 1
    38   10   36 1
    39   10   37 1
    40   11   38 1
    41   11   39 1
    42   17   40 1
    43   20   41 1
    44   20   42 1
    45   23   43 1
    46   24   44 1
    47   26   45 1
    48   27   46 1
@<TRIPOS>MOLECULE
ZINC00816944
 51 53 0 0 0
SMALL
NO_CHARGES


@<TRIPOS>ATOM
      1 C           5.280     8.597     6.189  C    
      2 C           4.061     8.985     5.334  C    
      3 O           2.882     8.361     5.879  O    
      4 C           1.724     8.743     5.252  C    
      5 C           1.266     7.995     4.147  C    
      6 C           0.066     8.342     3.503  C    
      7 C          -0.689     9.431     3.970  C    
      8 C          -0.243    10.175     5.078  C    
      9 C           0.972     9.846     5.729  C    
     10 N           1.434    10.477     6.849  N    
     11 C           1.229    11.710     7.298  C    
     12 O           0.677    12.549     6.603  O    
     13 C           1.864    12.106     8.543  C    
     14 N           1.829    11.072     9.554  N    
     15 C           2.960    10.382     9.900  C    
     16 C           4.044    11.043    10.523  C    
     17 C           5.209    10.334    10.870  C    
     18 C           5.305     8.958    10.594  C    
     19 C           4.235     8.290     9.971  C    
     20 C           3.071     9.000     9.624  C    
     21 S           0.366    10.694    10.322  S    
     22 O           0.620     9.702    11.541  O    
     23 O          -0.179    12.011    11.029  O    
     24 C          -0.850     9.997     9.286  C    
     25 C          -0.899     8.606     9.052  C    
     26 C          -1.867     8.067     8.184  C    
     27 C          -2.796     8.914     7.550  C    
     28 C          -2.750    10.302     7.775  C    
     29 C          -1.776    10.839     8.637  C    
     30 H           5.161     8.983     7.202  H    
     31 H           6.188     9.022     5.758  H    
     32 H           5.383     7.511     6.232  H    
     33 H           3.971    10.076     5.336  H    
     34 H           4.231     8.647     4.306  H    
     35 H           1.805     7.192     3.815  H    
     36 H          -0.262     7.797     2.702  H    
     37 H          -1.572     9.672     3.513  H    
     38 H          -0.834    10.933     5.422  H    
     39 H           2.040     9.947     7.389  H    
     40 H           2.893    12.385     8.294  H    
     41 H           1.387    13.006     8.942  H    
     42 H           3.983    12.041    10.737  H    
     43 H           5.986    10.820    11.325  H    
     44 H           6.153     8.444    10.844  H    
     45 H           4.307     7.291     9.764  H    
     46 H           2.308     8.505     9.159  H    
     47 H          -0.227     7.980     9.502  H    
     48 H          -1.893     7.059     8.011  H    
     49 H          -3.495     8.521     6.917  H    
     50 H          -3.405    10.922     7.294  H    
     51 H          -1.685    11.847     8.739  H    
@<TRIPOS>BOND
     1    1    2 1
     2    2    3 1
     3    3    4 1
     4    4    9 ar
     5    4    5 ar
     6    5    6 ar
     7    6    7 ar
     8    7    8 ar
     9    8    9 ar
    10    9   10 1
    11   10   11 1
    12   11   12 2
    13   11   13 1
    14   13   14 1
    15   14   15 1
    16   14   21 1
    17   15   20 ar
    18   15   16 ar
    19   16   17 ar
    20   17   18 ar
    21   18   19 ar
    22   19   20 ar
    23   21   22 2
    24   21   23 2
    25   21   24 1
    26   24   29 ar
    27   24   25 ar
    28   25   26 ar
    29   26   27 ar
    30   27   28 ar
    31   28   29 ar
    32    1   30 1
    33    1   31 1
    34    1   32 1
    35    2   33 1
    36    2   34 1
    37    5   35 1
    38    6   36 1
    39    7   37 1
    40    8   38 1
    41   10   39 1
    42   13   40 1
    43   13   41 1
    44   16   42 1
    45   17   43 1
    46   18   44 1
    47   19   45 1
    48   20   46 1
    49   25   47 1
    50   26   48 1
    51   27   49 1
    52   28   50 1
    53   29   51 1
@<TRIPOS>MOLECULE
ZINC00857834
 54 56 0 0 0
SMALL
NO_CHARGES


@<TRIPOS>ATOM
      1 C         -10.069     8.510     3.470  C    
      2 C          -8.785     9.332     3.255  C    
      3 O          -8.138     8.898     2.041  O    
      4 C          -6.892     9.427     1.807  C    
      5 C          -6.716    10.812     1.567  C    
      6 C          -5.442    11.335     1.274  C    
      7 C          -4.332    10.476     1.202  C    
      8 C          -4.498     9.092     1.413  C    
      9 C          -5.776     8.559     1.707  C    
     10 N          -5.914     7.207     1.852  N    
     11 C          -5.931     6.336     0.705  C    
     12 C          -7.282     6.142     0.211  C    
     13 O          -7.835     7.079    -0.358  O    
     14 N          -7.886     4.970     0.368  N    
     15 C          -9.220     4.647    -0.053  C    
     16 C         -10.312     5.335     0.804  C    
     17 C         -10.515     4.421     2.034  C    
     18 C          -9.947     3.036     1.650  C    
     19 C          -9.512     3.149     0.174  C    
     20 S          -6.031     6.550     3.410  S    
     21 O          -5.915     7.703     4.501  O    
     22 O          -7.484     5.942     3.609  O    
     23 C          -4.799     5.374     3.774  C    
     24 C          -5.044     4.001     3.557  C    
     25 C          -4.058     3.045     3.862  C    
     26 C          -2.815     3.456     4.383  C    
     27 C          -2.560     4.827     4.591  C    
     28 C          -3.545     5.782     4.282  C    
     29 H         -10.737     8.631     2.615  H    
     30 H         -10.584     8.847     4.373  H    
     31 H          -9.822     7.454     3.580  H    
     32 H          -9.052    10.390     3.186  H    
     33 H          -8.132     9.193     4.123  H    
     34 H          -7.520    11.443     1.590  H    
     35 H          -5.326    12.340     1.103  H    
     36 H          -3.404    10.852     0.985  H    
     37 H          -3.684     8.476     1.345  H    
     38 H          -5.315     6.744    -0.107  H    
     39 H          -5.480     5.374     0.962  H    
     40 H          -7.380     4.262     0.800  H    
     41 H          -9.339     4.890    -1.116  H    
     42 H         -10.032     6.349     1.104  H    
     43 H         -11.246     5.391     0.232  H    
     44 H          -9.969     4.823     2.891  H    
     45 H         -11.577     4.351     2.295  H    
     46 H          -9.080     2.800     2.276  H    
     47 H         -10.700     2.251     1.775  H    
     48 H         -10.338     2.838    -0.475  H    
     49 H          -8.645     2.515    -0.044  H    
     50 H          -5.940     3.689     3.180  H    
     51 H          -4.240     2.051     3.703  H    
     52 H          -2.100     2.760     4.607  H    
     53 H          -1.656     5.129     4.964  H    
     54 H          -3.344     6.773     4.437  H    
@<TRIPOS>BOND
     1    1    2 1
     2    2    3 1
     3    3    4 1
     4    4    9 ar
     5    4    5 ar
     6    5    6 ar
     7    6    7 ar
     8    7    8 ar
     9    8    9 ar
    10    9   10 1
    11   10   11 1
    12   10   20 1
    13   11   12 1
    14   12   13 2
    15   12   14 1
    16   14   15 1
    17   15   19 1
    18   15   16 1
    19   16   17 1
    20   17   18 1
    21   18   19 1
    22   20   21 2
    23   20   22 2
    24   20   23 1
    25   23   28 ar
    26   23   24 ar
    27   24   25 ar
    28   25   26 ar
    29   26   27 ar
    30   27   28 ar
    31    1   29 1
    32    1   30 1
    33    1   31 1
    34    2   32 1
    35    2   33 1
    36    5   34 1
    37    6   35 1
    38    7   36 1
    39    8   37 1
    40   11   38 1
    41   11   39 1
    42   14   40 1
    43   15   41 1
    44   16   42 1
    45   16   43 1
    46   17   44 1
    47   17   45 1
    48   18   46 1
    49   18   47 1
    50   19   48 1
    51   19   49 1
    52   24   50 1
    53   25   51 1
    54   26   52 1
    55   27   53 1
    56   28   54 1
@<TRIPOS>MOLECULE
ZINC00870523
 48 50 0 0 0
SMALL
NO_CHARGES


@<TRIPOS>ATOM
      1 C           6.401    -9.670    -2.987  C    
      2 C           5.054    -9.453    -2.257  C    
      3 N           4.571    -8.110    -2.455  N    
      4 C           3.753    -7.659    -3.433  C    
      5 N           3.707    -6.318    -3.357  N    
      6 N           4.434    -5.926    -2.365  N    
      7 C           4.969    -7.009    -1.778  C    
      8 S           6.051    -6.932    -0.408  S    
      9 C           5.101    -5.766     0.603  C    
     10 C           5.748    -5.516     1.877  C    
     11 O           6.844    -4.964     1.864  O    
     12 N           5.108    -5.810     3.005  N    
     13 C           5.460    -5.644     4.320  C    
     14 C           6.754    -5.351     4.814  C    
     15 C           6.998    -5.258     6.197  C    
     16 C           5.960    -5.457     7.140  C    
     17 C           4.663    -5.736     6.645  C    
     18 C           4.423    -5.829     5.261  C    
     19 C           6.223    -5.396     8.532  C    
     20 O           5.265    -5.724     9.434  O    
     21 O           7.451    -5.029     8.988  O    
     22 C           7.871    -4.953    10.350  C    
     23 C           3.036    -8.377    -4.407  C    
     24 C           2.126    -9.391    -4.031  C    
     25 C           1.383   -10.083    -5.004  C    
     26 C           1.536    -9.762    -6.366  C    
     27 C           2.426    -8.744    -6.751  C    
     28 C           3.166    -8.048    -5.776  C    
     29 H           6.276    -9.505    -4.059  H    
     30 H           6.748   -10.691    -2.828  H    
     31 H           7.154    -8.979    -2.608  H    
     32 H           4.341   -10.188    -2.631  H    
     33 H           5.177    -9.654    -1.188  H    
     34 H           5.003    -4.818     0.070  H    
     35 H           4.097    -6.181     0.747  H    
     36 H           4.225    -6.190     2.876  H    
     37 H           7.544    -5.236     4.179  H    
     38 H           7.956    -5.067     6.503  H    
     39 H           3.881    -5.885     7.287  H    
     40 H           3.471    -6.043     4.946  H    
     41 H           7.247    -4.249    10.905  H    
     42 H           8.907    -4.613    10.385  H    
     43 H           7.810    -5.938    10.814  H    
     44 H           1.978    -9.618    -3.045  H    
     45 H           0.723   -10.813    -4.722  H    
     46 H           0.996   -10.263    -7.072  H    
     47 H           2.533    -8.505    -7.742  H    
     48 H           3.806    -7.308    -6.076  H    
@<TRIPOS>BOND
     1    1    2 1
     2    2    3 1
     3    3    7 1
     4    3    4 1
     5    4    5 2
     6    4   23 1
     7    5    6 1
     8    6    7 2
     9    7    8 1
    10    8    9 1
    11    9   10 1
    12   10   11 2
    13   10   12 1
    14   12   13 1
    15   13   18 ar
    16   13   14 ar
    17   14   15 ar
    18   15   16 ar
    19   16   17 ar
    20   16   19 1
    21   17   18 ar
    22   19   20 2
    23   19   21 1
    24   21   22 1
    25   23   28 ar
    26   23   24 ar
    27   24   25 ar
    28   25   26 ar
    29   26   27 ar
    30   27   28 ar
    31    1   29 1
    32    1   30 1
    33    1   31 1
    34    2   32 1
    35    2   33 1
    36    9   34 1
    37    9   35 1
    38   12   36 1
    39   14   37 1
    40   15   38 1
    41   17   39 1
    42   18   40 1
    43   22   41 1
    44   22   42 1
    45   22   43 1
    46   24   44 1
    47   25   45 1
    48   26   46 1
    49   27   47 1
    50   28   48 1
@<TRIPOS>MOLECULE
ZINC00896374
 48 50 0 0 0
SMALL
NO_CHARGES


@<TRIPOS>ATOM
      1 C           1.685    -7.219    -4.989  C    
      2 C           2.530    -6.617    -3.934  C    
      3 C           3.090    -5.329    -4.082  C    
      4 C           3.890    -4.775    -3.062  C    
      5 C           4.155    -5.500    -1.875  C    
      6 C           3.596    -6.794    -1.734  C    
      7 C           2.790    -7.346    -2.749  C    
      8 C           4.953    -4.941    -0.848  C    
      9 N           5.382    -5.552     0.261  N    
     10 N           6.050    -4.702     0.908  N    
     11 N           6.072    -3.619     0.310  N    
     12 N           5.425    -3.692    -0.775  N    
     13 C           6.684    -2.456     0.786  C    
     14 C           5.639    -1.377     1.181  C    
     15 C           6.206    -0.128     1.741  C    
     16 O           7.542     0.068     1.800  O    
     17 O           5.439     0.889     2.217  O    
     18 C           4.004     0.965     2.303  C    
     19 C           3.524     2.221     2.865  C    
     20 O           4.376     3.042     3.198  O    
     21 C           2.161     2.534     3.029  C    
     22 C           1.131     1.578     2.815  C    
     23 C          -0.226     1.902     2.996  C    
     24 C          -0.613     3.208     3.384  C    
     25 C           0.399     4.165     3.600  C    
     26 C           1.756     3.835     3.432  C    
     27 O          -1.901     3.639     3.592  O    
     28 C          -3.014     2.851     3.129  C    
     29 H           2.136    -8.155    -5.331  H    
     30 H           1.569    -6.561    -5.855  H    
     31 H           0.691    -7.432    -4.587  H    
     32 H           2.917    -4.782    -4.931  H    
     33 H           4.280    -3.839    -3.201  H    
     34 H           3.763    -7.347    -0.886  H    
     35 H           2.392    -8.282    -2.615  H    
     36 H           7.298    -2.686     1.664  H    
     37 H           7.348    -2.064     0.009  H    
     38 H           5.050    -1.111     0.299  H    
     39 H           4.966    -1.809     1.925  H    
     40 H           3.588     0.851     1.297  H    
     41 H           3.660     0.140     2.931  H    
     42 H           1.355     0.624     2.527  H    
     43 H          -0.928     1.174     2.842  H    
     44 H           0.146     5.113     3.886  H    
     45 H           2.447     4.572     3.602  H    
     46 H          -2.930     2.635     2.059  H    
     47 H          -3.929     3.414     3.302  H    
     48 H          -3.079     1.915     3.689  H    
@<TRIPOS>BOND
     1    1    2 1
     2    2    7 ar
     3    2    3 ar
     4    3    4 ar
     5    4    5 ar
     6    5    6 ar
     7    5    8 1
     8    6    7 ar
     9    8   12 2
    10    8    9 1
    11    9   10 2
    12   10   11 1
    13   11   12 1
    14   11   13 1
    15   13   14 1
    16   14   15 1
    17   15   16 2
    18   15   17 1
    19   17   18 1
    20   18   19 1
    21   19   20 2
    22   19   21 1
    23   21   26 ar
    24   21   22 ar
    25   22   23 ar
    26   23   24 ar
    27   24   25 ar
    28   24   27 1
    29   25   26 ar
    30   27   28 1
    31    1   29 1
    32    1   30 1
    33    1   31 1
    34    3   32 1
    35    4   33 1
    36    6   34 1
    37    7   35 1
    38   13   36 1
    39   13   37 1
    40   14   38 1
    41   14   39 1
    42   18   40 1
    43   18   41 1
    44   22   42 1
    45   23   43 1
    46   25   44 1
    47   26   45 1
    48   28   46 1
    49   28   47 1
    50   28   48 1
@<TRIPOS>MOLECULE
ZINC00897911
 49 51 0 0 0
SMALL
NO_CHARGES


@<TRIPOS>ATOM
      1 C           4.837    -7.629    -7.339  C    
      2 C           4.567    -6.916    -6.070  C    
      3 C           5.508    -6.898    -5.010  C    
      4 C           5.219    -6.235    -3.800  C    
      5 C           3.997    -5.549    -3.637  C    
      6 C           3.052    -5.573    -4.683  C    
      7 C           3.334    -6.245    -5.890  C    
      8 O           3.657    -4.928    -2.460  O    
      9 C           4.481    -3.793    -2.102  C    
     10 C           3.883    -3.010    -1.035  C    
     11 O           2.747    -3.278    -0.658  O    
     12 N           4.603    -2.019    -0.512  N    
     13 C           4.322    -1.111     0.477  C    
     14 C           3.057    -0.864     1.056  C    
     15 C           2.897     0.097     2.073  C    
     16 C           3.988     0.865     2.552  C    
     17 C           5.247     0.627     1.949  C    
     18 C           5.408    -0.336     0.935  C    
     19 C           3.835     1.835     3.560  C    
     20 O           4.785     2.551     3.861  O    
     21 N           2.687     2.004     4.210  N    
     22 C           2.435     2.967     5.235  C    
     23 C           1.029     2.871     5.700  C    
     24 C          -0.039     3.142     4.817  C    
     25 C          -1.371     3.046     5.256  C    
     26 C          -1.622     2.685     6.592  C    
     27 N          -0.587     2.441     7.431  N    
     28 C           0.710     2.522     7.033  C    
     29 H           4.119    -8.445    -7.462  H    
     30 H           5.843    -8.057    -7.360  H    
     31 H           4.736    -6.941    -8.184  H    
     32 H           6.404    -7.385    -5.102  H    
     33 H           5.902    -6.255    -3.038  H    
     34 H           2.149    -5.109    -4.564  H    
     35 H           2.629    -6.252    -6.632  H    
     36 H           5.457    -4.162    -1.765  H    
     37 H           4.632    -3.129    -2.963  H    
     38 H           5.500    -1.942    -0.877  H    
     39 H           2.228    -1.368     0.746  H    
     40 H           1.959     0.228     2.449  H    
     41 H           6.070     1.160     2.240  H    
     42 H           6.335    -0.465     0.527  H    
     43 H           1.949     1.419     3.980  H    
     44 H           3.134     2.801     6.060  H    
     45 H           2.604     3.973     4.843  H    
     46 H           0.148     3.404     3.845  H    
     47 H          -2.142     3.238     4.613  H    
     48 H          -2.581     2.608     6.935  H    
     49 H           1.445     2.324     7.715  H    
@<TRIPOS>BOND
     1    1    2 1
     2    2    7 ar
     3    2    3 ar
     4    3    4 ar
     5    4    5 ar
     6    5    6 ar
     7    5    8 1
     8    6    7 ar
     9    8    9 1
    10    9   10 1
    11   10   11 2
    12   10   12 1
    13   12   13 1
    14   13   18 ar
    15   13   14 ar
    16   14   15 ar
    17   15   16 ar
    18   16   17 ar
    19   16   19 1
    20   17   18 ar
    21   19   20 2
    22   19   21 1
    23   21   22 1
    24   22   23 1
    25   23   28 ar
    26   23   24 ar
    27   24   25 ar
    28   25   26 ar
    29   26   27 ar
    30   27   28 ar
    31    1   29 1
    32    1   30 1
    33    1   31 1
    34    3   32 1
    35    4   33 1
    36    6   34 1
    37    7   35 1
    38    9   36 1
    39    9   37 1
    40   12   38 1
    41   14   39 1
    42   15   40 1
    43   17   41 1
    44   18   42 1
    45   21   43 1
    46   22   44 1
    47   22   45 1
    48   24   46 1
    49   25   47 1
    50   26   48 1
    51   28   49 1
@<TRIPOS>MOLECULE
ZINC00902754
 52 55 0 0 0
SMALL
NO_CHARGES


@<TRIPOS>ATOM
      1 C           4.421    -2.712     5.804  C    
      2 O           3.070    -2.614     6.289  O    
      3 C           2.378    -1.558     5.761  C    
      4 C           2.332    -0.324     6.441  C    
      5 C           1.591     0.751     5.914  C    
      6 C           0.875     0.623     4.695  C    
      7 C           0.909    -0.639     4.042  C    
      8 C           1.647    -1.716     4.567  C    
      9 C           0.134     1.683     4.156  C    
     10 C           0.406     3.029     4.251  C    
     11 C          -0.552     3.787     3.579  C    
     12 C          -0.417     5.190     3.540  C    
     13 N           0.668     5.745     4.150  N    
     14 C           1.599     4.997     4.798  C    
     15 N           1.468     3.645     4.837  N    
     16 S          -1.556     6.180     2.668  S    
     17 C          -1.604     7.638     3.744  C    
     18 C          -2.547     8.608     3.226  C    
     19 O          -2.284     9.138     2.153  O    
     20 N          -3.597     8.959     3.960  N    
     21 C          -4.603     9.847     3.689  C    
     22 C          -5.020    10.230     2.392  C    
     23 C          -6.080    11.141     2.209  C    
     24 C          -6.726    11.692     3.333  C    
     25 C          -6.353    11.294     4.631  C    
     26 C          -5.294    10.380     4.800  C    
     27 O          -6.973    11.839     5.723  O    
     28 C          -8.127    11.097     6.153  C    
     29 O          -6.444    11.527     0.948  O    
     30 C          -7.465    10.694     0.372  C    
     31 S          -1.752     2.775     2.858  S    
     32 N          -0.923     1.473     3.457  N    
     33 H           4.450    -2.814     4.715  H    
     34 H           4.880    -3.601     6.243  H    
     35 H           5.012    -1.839     6.100  H    
     36 H           2.835    -0.210     7.325  H    
     37 H           1.557     1.619     6.455  H    
     38 H           0.405    -0.787     3.163  H    
     39 H           1.658    -2.616     4.076  H    
     40 H           2.400     5.448     5.243  H    
     41 H          -1.880     7.315     4.754  H    
     42 H          -0.614     8.098     3.790  H    
     43 H          -3.630     8.561     4.845  H    
     44 H          -4.578     9.832     1.562  H    
     45 H          -7.478    12.373     3.206  H    
     46 H          -5.017    10.115     5.749  H    
     47 H          -8.886    11.046     5.368  H    
     48 H          -8.561    11.610     7.012  H    
     49 H          -7.854    10.086     6.461  H    
     50 H          -7.147     9.648     0.309  H    
     51 H          -7.663    11.051    -0.640  H    
     52 H          -8.392    10.757     0.946  H    
@<TRIPOS>BOND
     1    1    2 1
     2    2    3 1
     3    3    8 ar
     4    3    4 ar
     5    4    5 ar
     6    5    6 ar
     7    6    7 ar
     8    6    9 1
     9    7    8 ar
    10    9   32 2
    11    9   10 1
    12   10   15 ar
    13   10   11 ar
    14   11   12 ar
    15   11   31 1
    16   12   13 ar
    17   12   16 1
    18   13   14 ar
    19   14   15 ar
    20   16   17 1
    21   17   18 1
    22   18   19 2
    23   18   20 1
    24   20   21 1
    25   21   26 ar
    26   21   22 ar
    27   22   23 ar
    28   23   24 ar
    29   23   29 1
    30   24   25 ar
    31   25   26 ar
    32   25   27 1
    33   27   28 1
    34   29   30 1
    35   31   32 1
    36    1   33 1
    37    1   34 1
    38    1   35 1
    39    4   36 1
    40    5   37 1
    41    7   38 1
    42    8   39 1
    43   14   40 1
    44   17   41 1
    45   17   42 1
    46   20   43 1
    47   22   44 1
    48   24   45 1
    49   26   46 1
    50   28   47 1
    51   28   48 1
    52   28   49 1
    53   30   50 1
    54   30   51 1
    55   30   52 1
@<TRIPOS>MOLECULE
ZINC00907754
 55 57 0 0 0
SMALL
NO_CHARGES


@<TRIPOS>ATOM
      1 C           0.173    -4.621    -4.118  C    
      2 C           0.594    -3.393    -3.401  C    
      3 C           0.593    -2.114    -4.002  C    
      4 S           1.148    -0.975    -2.841  S    
      5 C           1.391    -2.116    -1.587  C    
      6 C           1.043    -3.387    -2.050  C    
      7 C           1.186    -4.431    -1.123  C    
      8 O           0.841    -5.553    -1.476  O    
      9 N           1.668    -4.218     0.130  N    
     10 C           1.988    -2.929     0.530  C    
     11 N           1.832    -1.896    -0.334  N    
     12 S           2.510    -2.501     2.149  S    
     13 C           3.619    -1.097     1.827  C    
     14 C           4.377    -0.584     2.969  C    
     15 O           4.218    -1.170     4.034  O    
     16 N           5.214     0.473     2.912  N    
     17 C           5.469     1.245     1.704  C    
     18 C           5.076     2.728     1.932  C    
     19 C           5.547     2.450     4.346  C    
     20 C           5.929     0.971     4.080  C    
     21 C           5.408     4.748     3.340  C    
     22 C           6.406     5.507     4.246  C    
     23 O           6.108     6.899     4.270  O    
     24 C           1.812    -5.343     1.052  C    
     25 C           0.601    -5.521     1.837  C    
     26 C          -0.181    -6.609     1.776  C    
     27 C           0.198    -1.733    -5.369  C    
     28 N           5.762     3.305     3.132  N    
     29 H           0.998    -5.334    -4.143  H    
     30 H          -0.130    -4.426    -5.147  H    
     31 H          -0.676    -5.075    -3.603  H    
     32 H           4.327    -1.406     1.054  H    
     33 H           2.996    -0.287     1.442  H    
     34 H           6.534     1.190     1.464  H    
     35 H           4.938     0.894     0.818  H    
     36 H           5.361     3.291     1.040  H    
     37 H           3.989     2.797     2.043  H    
     38 H           4.499     2.494     4.663  H    
     39 H           6.163     2.807     5.173  H    
     40 H           5.737     0.406     4.995  H    
     41 H           7.005     0.909     3.894  H    
     42 H           4.401     4.840     3.757  H    
     43 H           5.411     5.268     2.377  H    
     44 H           6.352     5.142     5.272  H    
     45 H           7.426     5.371     3.878  H    
     46 H           6.204     7.197     3.341  H    
     47 H           2.071    -6.261     0.512  H    
     48 H           2.649    -5.195     1.737  H    
     49 H           0.325    -4.786     2.448  H    
     50 H          -1.002    -6.663     2.331  H    
     51 H           0.042    -7.371     1.182  H    
     52 H           0.821    -2.256    -6.093  H    
     53 H           0.313    -0.660    -5.522  H    
     54 H          -0.847    -1.995    -5.536  H    
     55 H           6.763     3.277     2.930  H    
@<TRIPOS>BOND
     1    1    2 1
     2    2    6 1
     3    2    3 2
     4    3    4 1
     5    3   27 1
     6    4    5 1
     7    5   11 1
     8    5    6 2
     9    6    7 1
    10    7    8 2
    11    7    9 1
    12    9   10 1
    13    9   24 1
    14   10   11 2
    15   10   12 1
    16   12   13 1
    17   13   14 1
    18   14   15 2
    19   14   16 1
    20   16   20 1
    21   16   17 1
    22   17   18 1
    23   18   28 1
    24   19   20 1
    25   19   28 1
    26   21   22 1
    27   21   28 1
    28   22   23 1
    29   24   25 1
    30   25   26 2
    31    1   29 1
    32    1   30 1
    33    1   31 1
    34   13   32 1
    35   13   33 1
    36   17   34 1
    37   17   35 1
    38   18   36 1
    39   18   37 1
    40   19   38 1
    41   19   39 1
    42   20   40 1
    43   20   41 1
    44   21   42 1
    45   21   43 1
    46   22   44 1
    47   22   45 1
    48   23   46 1
    49   24   47 1
    50   24   48 1
    51   25   49 1
    52   26   50 1
    53   26   51 1
    54   27   52 1
    55   27   53 1
    56   27   54 1
    57   28   55 1
@<TRIPOS>MOLECULE
ZINC00917857
 51 53 0 0 0
SMALL
NO_CHARGES


@<TRIPOS>ATOM
      1 C           1.893     7.198     2.003  C    
      2 C           3.177     6.485     2.228  C    
      3 C           3.673     5.613     1.230  C    
      4 C           4.880     4.919     1.410  C    
      5 C           5.608     5.079     2.598  C    
      6 C           5.133     5.947     3.596  C    
      7 C           3.931     6.676     3.420  C    
      8 N           3.440     7.511     4.393  N    
      9 C           4.093     8.277     5.259  C    
     10 O           5.314     8.382     5.247  O    
     11 C           3.350     9.098     6.193  C    
     12 S           3.684     8.559     7.889  S    
     13 C           2.690     9.749     8.680  C    
     14 N           3.035    11.042     8.780  N    
     15 N           2.106    11.657     9.435  N    
     16 C           1.147    10.772     9.779  C    
     17 N           1.512     9.561     9.307  N    
     18 C           0.823     8.309     9.426  C    
     19 C          -0.073    11.104    10.542  C    
     20 N          -0.154    12.494    10.862  N    
     21 C          -1.138    13.112    11.564  C    
     22 C          -2.276    12.455    12.099  C    
     23 C          -3.246    13.172    12.827  C    
     24 C          -3.088    14.557    13.045  C    
     25 C          -1.972    15.223    12.495  C    
     26 C          -1.004    14.503    11.769  C    
     27 O          -4.037    15.282    13.712  O    
     28 C          -3.969    15.144    15.140  C    
     29 Cl          7.050     4.221     2.831  Cl   
     30 H           1.179     6.911     2.775  H    
     31 H           1.449     6.967     1.029  H    
     32 H           2.057     8.276     2.050  H    
     33 H           3.159     5.474     0.357  H    
     34 H           5.218     4.295     0.674  H    
     35 H           5.656     6.017     4.470  H    
     36 H           2.477     7.613     4.400  H    
     37 H           3.644    10.142     6.068  H    
     38 H           2.275     9.022     6.012  H    
     39 H           0.589     7.923     8.431  H    
     40 H          -0.109     8.399     9.983  H    
     41 H           1.459     7.590     9.945  H    
     42 H          -0.939    10.825     9.941  H    
     43 H          -0.069    10.517    11.465  H    
     44 H           0.567    13.057    10.544  H    
     45 H          -2.412    11.454    11.963  H    
     46 H          -4.065    12.684    13.198  H    
     47 H          -1.858    16.230    12.632  H    
     48 H          -0.195    15.007    11.394  H    
     49 H          -4.287    14.140    15.445  H    
     50 H          -4.652    15.868    15.584  H    
     51 H          -2.961    15.337    15.530  H    
@<TRIPOS>BOND
     1    1    2 1
     2    2    7 ar
     3    2    3 ar
     4    3    4 ar
     5    4    5 ar
     6    5    6 ar
     7    5   29 1
     8    6    7 ar
     9    7    8 1
    10    8    9 1
    11    9   10 2
    12    9   11 1
    13   11   12 1
    14   12   13 1
    15   13   17 1
    16   13   14 2
    17   14   15 1
    18   15   16 2
    19   16   17 1
    20   16   19 1
    21   17   18 1
    22   19   20 1
    23   20   21 1
    24   21   26 ar
    25   21   22 ar
    26   22   23 ar
    27   23   24 ar
    28   24   25 ar
    29   24   27 1
    30   25   26 ar
    31   27   28 1
    32    1   30 1
    33    1   31 1
    34    1   32 1
    35    3   33 1
    36    4   34 1
    37    6   35 1
    38    8   36 1
    39   11   37 1
    40   11   38 1
    41   18   39 1
    42   18   40 1
    43   18   41 1
    44   19   42 1
    45   19   43 1
    46   20   44 1
    47   22   45 1
    48   23   46 1
    49   25   47 1
    50   26   48 1
    51   28   49 1
    52   28   50 1
    53   28   51 1
@<TRIPOS>MOLECULE
ZINC00919042
 63 66 0 0 0
SMALL
NO_CHARGES


@<TRIPOS>ATOM
      1 C           4.706    10.367     8.452  C    
      2 O           3.296    10.596     8.290  O    
      3 C           2.514     9.508     8.578  C    
      4 C           2.362     8.460     7.643  C    
      5 C           1.551     7.347     7.947  C    
      6 C           1.423     6.246     7.097  C    
      7 C           0.705     5.149     7.446  C    
      8 C           0.010     5.169     8.645  C    
      9 O          -0.693     4.240     9.017  O    
     10 N           0.100     6.205     9.477  N    
     11 C           0.867     7.301     9.190  C    
     12 C           0.995     8.358    10.107  C    
     13 C           1.812     9.468     9.803  C    
     14 O           1.978    10.479    10.710  O    
     15 C           0.906    11.439    10.717  C    
     16 C           0.753     3.962     6.581  C    
     17 N           2.068     3.357     6.461  N    
     18 C           2.557     2.917     5.172  C    
     19 C           3.536     3.947     4.550  C    
     20 C           4.154     3.465     3.285  C    
     21 C           5.531     3.135     3.227  C    
     22 C           6.107     2.673     2.029  C    
     23 C           5.320     2.536     0.875  C    
     24 C           3.952     2.869     0.915  C    
     25 C           3.375     3.329     2.114  C    
     26 S           2.895     2.885     7.873  S    
     27 O           2.012     1.805     8.639  O    
     28 O           4.226     2.091     7.512  O    
     29 C           3.418     4.173     8.923  C    
     30 C           4.351     5.125     8.463  C    
     31 C           4.752     6.183     9.293  C    
     32 C           4.229     6.294    10.597  C    
     33 C           3.298     5.347    11.092  C    
     34 C           2.903     4.291    10.235  C    
     35 C           2.769     5.486    12.481  C    
     36 F           2.151     6.703    12.636  F    
     37 F           1.850     4.526    12.842  F    
     38 F           3.800     5.408    13.388  F    
     39 H           4.954     9.976     9.448  H    
     40 H           5.220    11.324     8.324  H    
     41 H           5.080     9.680     7.685  H    
     42 H           2.858     8.505     6.747  H    
     43 H           1.926     6.251     6.240  H    
     44 H          -0.386     6.180    10.318  H    
     45 H           0.505     8.318    11.006  H    
     46 H           0.705    11.839     9.715  H    
     47 H           1.193    12.265    11.368  H    
     48 H          -0.009    10.994    11.119  H    
     49 H           0.075     3.176     6.927  H    
     50 H           0.373     4.276     5.602  H    
     51 H           3.061     1.951     5.263  H    
     52 H           1.720     2.754     4.487  H    
     53 H           3.004     4.881     4.353  H    
     54 H           4.310     4.169     5.288  H    
     55 H           6.120     3.219     4.058  H    
     56 H           7.103     2.434     1.999  H    
     57 H           5.738     2.202     0.005  H    
     58 H           3.380     2.773     0.074  H    
     59 H           2.381     3.566     2.125  H    
     60 H           4.739     5.057     7.518  H    
     61 H           5.423     6.877     8.949  H    
     62 H           4.537     7.073    11.183  H    
     63 H           2.222     3.600    10.560  H    
@<TRIPOS>BOND
     1    1    2 1
     2    2    3 1
     3    3   13 ar
     4    3    4 ar
     5    4    5 ar
     6    5   11 ar
     7    5    6 1
     8    6    7 2
     9    7    8 1
    10    7   16 1
    11    8    9 2
    12    8   10 1
    13   10   11 1
    14   11   12 ar
    15   12   13 ar
    16   13   14 1
    17   14   15 1
    18   16   17 1
    19   17   18 1
    20   17   26 1
    21   18   19 1
    22   19   20 1
    23   20   25 ar
    24   20   21 ar
    25   21   22 ar
    26   22   23 ar
    27   23   24 ar
    28   24   25 ar
    29   26   27 2
    30   26   28 2
    31   26   29 1
    32   29   34 ar
    33   29   30 ar
    34   30   31 ar
    35   31   32 ar
    36   32   33 ar
    37   33   34 ar
    38   33   35 1
    39   35   36 1
    40   35   37 1
    41   35   38 1
    42    1   39 1
    43    1   40 1
    44    1   41 1
    45    4   42 1
    46    6   43 1
    47   10   44 1
    48   12   45 1
    49   15   46 1
    50   15   47 1
    51   15   48 1
    52   16   49 1
    53   16   50 1
    54   18   51 1
    55   18   52 1
    56   19   53 1
    57   19   54 1
    58   21   55 1
    59   22   56 1
    60   23   57 1
    61   24   58 1
    62   25   59 1
    63   30   60 1
    64   31   61 1
    65   32   62 1
    66   34   63 1
@<TRIPOS>MOLECULE
ZINC00923112
 59 62 0 0 0
SMALL
NO_CHARGES


@<TRIPOS>ATOM
      1 C          -8.844     0.039    -0.431  C    
      2 C          -7.399    -0.231    -0.882  C    
      3 O          -7.094     0.605    -2.012  O    
      4 C          -5.829     0.409    -2.498  C    
      5 C          -5.604    -0.542    -3.515  C    
      6 C          -4.311    -0.741    -4.027  C    
      7 C          -3.234     0.021    -3.532  C    
      8 C          -3.451     0.994    -2.524  C    
      9 C          -4.756     1.188    -2.019  C    
     10 C          -2.349     1.729    -2.087  C    
     11 C          -1.106     1.536    -2.594  C    
     12 C          -0.918     0.516    -3.515  C    
     13 O           0.187     0.126    -3.871  O    
     14 N          -1.961    -0.174    -3.988  N    
     15 C          -0.013     2.443    -2.218  C    
     16 N           0.570     3.212    -3.298  N    
     17 C           1.994     3.453    -3.311  C    
     18 C           2.789     2.245    -3.878  C    
     19 C           4.227     2.562    -4.084  C    
     20 C           5.080     2.753    -2.974  C    
     21 C           6.437     3.080    -3.155  C    
     22 C           6.959     3.214    -4.453  C    
     23 C           6.127     3.012    -5.565  C    
     24 C           4.770     2.686    -5.384  C    
     25 S          -0.387     3.990    -4.470  S    
     26 O          -1.932     4.000    -4.093  O    
     27 O          -0.006     5.533    -4.542  O    
     28 C          -0.152     3.209    -6.007  C    
     29 C          -0.905     2.061    -6.341  C    
     30 C          -0.471     1.224    -7.386  C    
     31 C           0.644     1.580    -8.165  C    
     32 C           1.339     2.771    -7.894  C    
     33 C           0.953     3.573    -6.804  C    
     34 H          -8.954     1.083    -0.132  H    
     35 H          -9.095    -0.599     0.418  H    
     36 H          -9.538    -0.172    -1.247  H    
     37 H          -6.725    -0.015    -0.048  H    
     38 H          -7.307    -1.290    -1.143  H    
     39 H          -6.381    -1.097    -3.877  H    
     40 H          -4.155    -1.442    -4.755  H    
     41 H          -4.931     1.887    -1.294  H    
     42 H          -2.505     2.449    -1.417  H    
     43 H          -1.828    -0.840    -4.684  H    
     44 H          -0.330     3.170    -1.464  H    
     45 H           0.746     1.823    -1.735  H    
     46 H           2.237     4.336    -3.908  H    
     47 H           2.334     3.668    -2.293  H    
     48 H           2.712     1.394    -3.198  H    
     49 H           2.329     1.939    -4.817  H    
     50 H           4.717     2.661    -2.023  H    
     51 H           7.042     3.223    -2.344  H    
     52 H           7.942     3.455    -4.585  H    
     53 H           6.506     3.106    -6.508  H    
     54 H           4.179     2.554    -6.209  H    
     55 H          -1.725     1.784    -5.786  H    
     56 H          -0.925     0.323    -7.534  H    
     57 H           0.961     0.965    -8.918  H    
     58 H           2.162     3.022    -8.447  H    
     59 H           1.521     4.389    -6.564  H    
@<TRIPOS>BOND
     1    1    2 1
     2    2    3 1
     3    3    4 1
     4    4    9 ar
     5    4    5 ar
     6    5    6 ar
     7    6    7 ar
     8    7   14 1
     9    7    8 ar
    10    8    9 ar
    11    8   10 1
    12   10   11 2
    13   11   12 1
    14   11   15 1
    15   12   13 2
    16   12   14 1
    17   15   16 1
    18   16   17 1
    19   16   25 1
    20   17   18 1
    21   18   19 1
    22   19   24 ar
    23   19   20 ar
    24   20   21 ar
    25   21   22 ar
    26   22   23 ar
    27   23   24 ar
    28   25   26 2
    29   25   27 2
    30   25   28 1
    31   28   33 ar
    32   28   29 ar
    33   29   30 ar
    34   30   31 ar
    35   31   32 ar
    36   32   33 ar
    37    1   34 1
    38    1   35 1
    39    1   36 1
    40    2   37 1
    41    2   38 1
    42    5   39 1
    43    6   40 1
    44    9   41 1
    45   10   42 1
    46   14   43 1
    47   15   44 1
    48   15   45 1
    49   17   46 1
    50   17   47 1
    51   18   48 1
    52   18   49 1
    53   20   50 1
    54   21   51 1
    55   22   52 1
    56   23   53 1
    57   24   54 1
    58   29   55 1
    59   30   56 1
    60   31   57 1
    61   32   58 1
    62   33   59 1
@<TRIPOS>MOLECULE
ZINC00942004
 50 51 0 0 0
SMALL
NO_CHARGES


@<TRIPOS>ATOM
      1 C          -6.381    -4.632    -5.802  C    
      2 C          -5.262    -3.860    -5.058  C    
      3 C          -3.898    -4.045    -5.775  C    
      4 C          -5.620    -2.360    -4.873  C    
      5 O          -4.651    -1.707    -4.042  O    
      6 C          -4.647    -0.397    -3.675  C    
      7 O          -5.651     0.399    -4.114  O    
      8 C          -3.626     0.124    -2.837  C    
      9 C          -2.521    -0.667    -2.444  C    
     10 C          -1.519    -0.155    -1.599  C    
     11 C          -1.592     1.170    -1.106  C    
     12 C          -2.667     1.975    -1.538  C    
     13 C          -3.670     1.462    -2.377  C    
     14 N          -0.697     1.764    -0.248  N    
     15 C           0.195     1.239     0.603  C    
     16 O           0.274     0.019     0.737  O    
     17 C           0.961     2.015     1.450  C    
     18 C           2.297     1.772     1.540  C    
     19 C           3.266     2.394     2.351  C    
     20 C           2.968     3.034     3.584  C    
     21 C           3.977     3.636     4.357  C    
     22 C           5.325     3.595     3.948  C    
     23 C           5.644     2.915     2.750  C    
     24 C           4.631     2.330     1.967  C    
     25 O           6.240     4.158     4.812  O    
     26 C           7.431     4.753     4.265  C    
     27 C           0.522     3.189     1.753  C    
     28 N           0.129     4.233     2.028  N    
     29 H          -6.514    -4.228    -6.808  H    
     30 H          -7.325    -4.549    -5.260  H    
     31 H          -6.131    -5.690    -5.879  H    
     32 H          -5.176    -4.296    -4.059  H    
     33 H          -3.654    -5.108    -5.843  H    
     34 H          -3.100    -3.545    -5.218  H    
     35 H          -3.932    -3.625    -6.785  H    
     36 H          -5.659    -1.866    -5.847  H    
     37 H          -6.599    -2.266    -4.396  H    
     38 H          -2.429    -1.632    -2.771  H    
     39 H          -0.732    -0.762    -1.354  H    
     40 H          -2.744     2.945    -1.213  H    
     41 H          -4.434     2.085    -2.650  H    
     42 H          -0.756     2.738    -0.231  H    
     43 H           2.644     1.004     1.004  H    
     44 H           2.016     3.036     3.955  H    
     45 H           3.734     4.079     5.247  H    
     46 H           6.616     2.842     2.439  H    
     47 H           4.900     1.849     1.102  H    
     48 H           8.115     3.977     3.907  H    
     49 H           7.933     5.309     5.058  H    
     50 H           7.199     5.445     3.444  H    
@<TRIPOS>BOND
     1    1    2 1
     2    2    3 1
     3    2    4 1
     4    4    5 1
     5    5    6 1
     6    6    7 2
     7    6    8 1
     8    8   13 ar
     9    8    9 ar
    10    9   10 ar
    11   10   11 ar
    12   11   12 ar
    13   11   14 1
    14   12   13 ar
    15   14   15 1
    16   15   16 2
    17   15   17 1
    18   17   18 2
    19   17   27 1
    20   18   19 1
    21   19   24 ar
    22   19   20 ar
    23   20   21 ar
    24   21   22 ar
    25   22   23 ar
    26   22   25 1
    27   23   24 ar
    28   25   26 1
    29   27   28 3
    30    1   29 1
    31    1   30 1
    32    1   31 1
    33    2   32 1
    34    3   33 1
    35    3   34 1
    36    3   35 1
    37    4   36 1
    38    4   37 1
    39    9   38 1
    40   10   39 1
    41   12   40 1
    42   13   41 1
    43   14   42 1
    44   18   43 1
    45   20   44 1
    46   21   45 1
    47   23   46 1
    48   24   47 1
    49   26   48 1
    50   26   49 1
    51   26   50 1
@<TRIPOS>MOLECULE
ZINC00961141
 51 52 0 0 0
SMALL
NO_CHARGES


@<TRIPOS>ATOM
      1 C           2.129    -5.094    -6.358  C    
      2 C           3.274    -4.104    -6.030  C    
      3 C           3.077    -2.758    -6.778  C    
      4 N           3.314    -3.909    -4.610  N    
      5 C           4.319    -3.403    -3.901  C    
      6 O           5.361    -3.073    -4.459  O    
      7 C           4.219    -3.251    -2.525  C    
      8 C           3.060    -3.482    -1.767  C    
      9 S           3.434    -3.149    -0.127  S    
     10 C           5.070    -2.729    -0.445  C    
     11 N           5.283    -2.849    -1.775  N    
     12 C           6.061    -2.315     0.561  C    
     13 N           5.676    -1.042     1.168  N    
     14 C           6.029     0.169     0.407  C    
     15 C           4.816     0.986    -0.119  C    
     16 C           7.070     1.063     1.132  C    
     17 C           5.033    -1.041     2.359  C    
     18 O           4.765    -2.091     2.933  O    
     19 C           4.572     0.058     3.062  C    
     20 C           5.317     0.579     4.148  C    
     21 C           4.810     1.638     4.925  C    
     22 C           3.551     2.202     4.624  C    
     23 C           2.777     1.641     3.589  C    
     24 C           3.276     0.569     2.825  C    
     25 O           3.009     3.223     5.361  O    
     26 C           3.727     4.465     5.284  C    
     27 H           1.163    -4.694    -6.031  H    
     28 H           2.306    -6.044    -5.846  H    
     29 H           2.086    -5.283    -7.430  H    
     30 H           4.213    -4.560    -6.363  H    
     31 H           3.016    -2.925    -7.854  H    
     32 H           3.922    -2.089    -6.587  H    
     33 H           2.162    -2.264    -6.446  H    
     34 H           2.530    -4.203    -4.115  H    
     35 H           2.146    -3.783    -2.110  H    
     36 H           6.161    -3.128     1.282  H    
     37 H           7.049    -2.234     0.096  H    
     38 H           6.540    -0.133    -0.515  H    
     39 H           4.037     0.315    -0.490  H    
     40 H           5.128     1.634    -0.943  H    
     41 H           4.399     1.623     0.655  H    
     42 H           6.614     1.634     1.939  H    
     43 H           7.513     1.770     0.429  H    
     44 H           7.869     0.444     1.548  H    
     45 H           6.231     0.187     4.385  H    
     46 H           5.361     1.995     5.710  H    
     47 H           1.840     2.005     3.394  H    
     48 H           2.685     0.168     2.092  H    
     49 H           4.645     4.411     5.876  H    
     50 H           3.100     5.252     5.708  H    
     51 H           3.977     4.736     4.252  H    
@<TRIPOS>BOND
     1    1    2 1
     2    2    3 1
     3    2    4 1
     4    4    5 1
     5    5    6 2
     6    5    7 1
     7    7   11 1
     8    7    8 2
     9    8    9 1
    10    9   10 1
    11   10   11 2
    12   10   12 1
    13   12   13 1
    14   13   14 1
    15   13   17 1
    16   14   15 1
    17   14   16 1
    18   17   18 2
    19   17   19 1
    20   19   24 ar
    21   19   20 ar
    22   20   21 ar
    23   21   22 ar
    24   22   23 ar
    25   22   25 1
    26   23   24 ar
    27   25   26 1
    28    1   27 1
    29    1   28 1
    30    1   29 1
    31    2   30 1
    32    3   31 1
    33    3   32 1
    34    3   33 1
    35    4   34 1
    36    8   35 1
    37   12   36 1
    38   12   37 1
    39   14   38 1
    40   15   39 1
    41   15   40 1
    42   15   41 1
    43   16   42 1
    44   16   43 1
    45   16   44 1
    46   20   45 1
    47   21   46 1
    48   23   47 1
    49   24   48 1
    50   26   49 1
    51   26   50 1
    52   26   51 1
@<TRIPOS>MOLECULE
ZINC00992306
 52 54 0 0 0
SMALL
NO_CHARGES


@<TRIPOS>ATOM
      1 C           0.678   -11.786    -6.932  C    
      2 C           1.935   -12.361    -6.382  C    
      3 C           1.960   -13.693    -5.903  C    
      4 C           3.152   -14.260    -5.411  C    
      5 C           4.339   -13.508    -5.402  C    
      6 C           4.332   -12.183    -5.872  C    
      7 C           3.133   -11.595    -6.332  C    
      8 N           3.180   -10.317    -6.782  N    
      9 C           2.953    -9.125    -6.182  C    
     10 N           2.604    -8.808    -4.906  N    
     11 C           2.487    -7.496    -4.732  C    
     12 O           2.156    -6.983    -3.670  O    
     13 C           2.793    -6.646    -5.861  C    
     14 S           3.106    -7.768    -7.238  S    
     15 C           4.031    -5.721    -5.645  C    
     16 C           3.876    -4.591    -4.738  C    
     17 O           2.768    -4.269    -4.333  O    
     18 N           4.976    -3.962    -4.342  N    
     19 C           5.123    -2.907    -3.481  C    
     20 C           4.164    -1.875    -3.326  C    
     21 C           4.372    -0.825    -2.413  C    
     22 C           5.547    -0.794    -1.642  C    
     23 C           6.520    -1.794    -1.806  C    
     24 C           6.327    -2.831    -2.742  C    
     25 O           7.288    -3.803    -2.861  O    
     26 C           8.329    -3.464    -3.793  C    
     27 Cl          3.211     0.398    -2.242  Cl   
     28 C           2.397    -9.769    -3.839  C    
     29 C           3.642   -10.299    -3.309  C    
     30 C           3.677   -11.254    -2.371  C    
     31 H           0.385   -10.910    -6.351  H    
     32 H          -0.151   -12.499    -6.908  H    
     33 H           0.836   -11.485    -7.971  H    
     34 H           1.112   -14.265    -5.914  H    
     35 H           3.156   -15.224    -5.067  H    
     36 H           5.208   -13.922    -5.053  H    
     37 H           5.204   -11.643    -5.861  H    
     38 H           1.916    -6.048    -6.122  H    
     39 H           4.861    -6.342    -5.292  H    
     40 H           4.328    -5.304    -6.611  H    
     41 H           5.804    -4.367    -4.642  H    
     42 H           3.317    -1.869    -3.894  H    
     43 H           5.704    -0.041    -0.970  H    
     44 H           7.374    -1.765    -1.242  H    
     45 H           7.930    -3.288    -4.795  H    
     46 H           9.026    -4.302    -3.847  H    
     47 H           8.882    -2.586    -3.461  H    
     48 H           1.854    -9.323    -3.001  H    
     49 H           1.765   -10.582    -4.197  H    
     50 H           4.505    -9.942    -3.653  H    
     51 H           4.548   -11.592    -2.037  H    
     52 H           2.842   -11.645    -2.002  H    
@<TRIPOS>BOND
     1    1    2 1
     2    2    7 ar
     3    2    3 ar
     4    3    4 ar
     5    4    5 ar
     6    5    6 ar
     7    6    7 ar
     8    7    8 1
     9    8    9 2
    10    9   14 1
    11    9   10 1
    12   10   11 1
    13   10   28 1
    14   11   12 2
    15   11   13 1
    16   13   14 1
    17   13   15 1
    18   15   16 1
    19   16   17 2
    20   16   18 1
    21   18   19 1
    22   19   24 ar
    23   19   20 ar
    24   20   21 ar
    25   21   22 ar
    26   21   27 1
    27   22   23 ar
    28   23   24 ar
    29   24   25 1
    30   25   26 1
    31   28   29 1
    32   29   30 2
    33    1   31 1
    34    1   32 1
    35    1   33 1
    36    3   34 1
    37    4   35 1
    38    5   36 1
    39    6   37 1
    40   13   38 1
    41   15   39 1
    42   15   40 1
    43   18   41 1
    44   20   42 1
    45   22   43 1
    46   23   44 1
    47   26   45 1
    48   26   46 1
    49   26   47 1
    50   28   48 1
    51   28   49 1
    52   29   50 1
    53   30   51 1
    54   30   52 1
@<TRIPOS>MOLECULE
ZINC01022163
 42 44 0 0 0
SMALL
NO_CHARGES


@<TRIPOS>ATOM
      1 C          -0.021    -3.904   -10.534  C    
      2 O           0.653    -2.645   -10.370  O    
      3 C           0.766    -2.260    -9.062  C    
      4 C          -0.243    -1.485    -8.458  C    
      5 C          -0.114    -1.067    -7.122  C    
      6 C           1.037    -1.405    -6.374  C    
      7 C           1.182    -0.992    -5.031  C    
      8 C           2.345    -1.301    -4.285  C    
      9 C           3.351    -2.078    -4.909  C    
     10 C           3.218    -2.503    -6.242  C    
     11 C           2.068    -2.170    -6.988  C    
     12 C           1.924    -2.588    -8.329  C    
     13 C           2.434    -0.883    -2.957  C    
     14 N           3.487    -0.556    -2.297  N    
     15 N           4.693    -0.453    -2.687  N    
     16 C           5.709    -0.135    -1.894  C    
     17 O           5.477     0.057    -0.704  O    
     18 C           7.020     0.005    -2.382  C    
     19 C           7.375    -0.372    -3.703  C    
     20 C           8.689    -0.216    -4.189  C    
     21 C           9.688     0.325    -3.356  C    
     22 C           9.365     0.703    -2.038  C    
     23 C           8.050     0.540    -1.564  C    
     24 O          10.298     1.229    -1.204  O    
     25 O          10.961     0.489    -3.807  O    
     26 O           8.995    -0.584    -5.462  O    
     27 H           0.505    -4.709   -10.015  H    
     28 H          -0.040    -4.144   -11.598  H    
     29 H          -1.052    -3.851   -10.176  H    
     30 H          -1.077    -1.226    -8.991  H    
     31 H          -0.864    -0.511    -6.702  H    
     32 H           0.434    -0.440    -4.596  H    
     33 H           4.179    -2.378    -4.391  H    
     34 H           3.964    -3.066    -6.660  H    
     35 H           2.659    -3.137    -8.783  H    
     36 H           1.585    -0.778    -2.452  H    
     37 H           4.870    -0.580    -3.629  H    
     38 H           6.681    -0.775    -4.334  H    
     39 H           7.851     0.832    -0.604  H    
     40 H          11.140     1.233    -1.701  H    
     41 H          10.974     0.148    -4.725  H    
     42 H           8.166    -0.938    -5.848  H    
@<TRIPOS>BOND
     1    1    2 1
     2    2    3 1
     3    3   12 ar
     4    3    4 ar
     5    4    5 ar
     6    5    6 ar
     7    6   11 ar
     8    6    7 ar
     9    7    8 ar
    10    8    9 ar
    11    8   13 1
    12    9   10 ar
    13   10   11 ar
    14   11   12 ar
    15   13   14 2
    16   14   15 1
    17   15   16 1
    18   16   17 2
    19   16   18 1
    20   18   23 ar
    21   18   19 ar
    22   19   20 ar
    23   20   21 ar
    24   20   26 1
    25   21   22 ar
    26   21   25 1
    27   22   23 ar
    28   22   24 1
    29    1   27 1
    30    1   28 1
    31    1   29 1
    32    4   30 1
    33    5   31 1
    34    7   32 1
    35    9   33 1
    36   10   34 1
    37   12   35 1
    38   13   36 1
    39   15   37 1
    40   19   38 1
    41   23   39 1
    42   24   40 1
    43   25   41 1
    44   26   42 1
@<TRIPOS>MOLECULE
ZINC01051691
 39 40 0 0 0
SMALL
NO_CHARGES


@<TRIPOS>ATOM
      1 C          -0.184    -6.559    -5.103  C    
      2 C           0.917    -5.569    -5.040  C    
      3 C           2.225    -5.937    -4.658  C    
      4 C           3.265    -4.987    -4.589  C    
      5 C           3.011    -3.622    -4.915  C    
      6 C           1.695    -3.263    -5.305  C    
      7 C           0.668    -4.222    -5.363  C    
      8 Br          1.224    -1.518    -5.769  Br   
      9 N           3.904    -2.595    -4.901  N    
     10 C           5.295    -2.571    -4.568  C    
     11 C           5.908    -1.263    -4.704  C    
     12 O           5.251    -0.284    -5.052  O    
     13 N           7.205    -1.151    -4.462  N    
     14 N           7.853    -0.063    -4.574  N    
     15 C           9.114     0.060    -4.351  C    
     16 C           9.789     1.276    -4.484  C    
     17 C           9.088     2.472    -4.793  C    
     18 C           9.756     3.705    -4.901  C    
     19 C          11.150     3.771    -4.715  C    
     20 C          11.868     2.601    -4.421  C    
     21 C          11.203     1.361    -4.306  C    
     22 O          11.997     0.289    -4.020  O    
     23 O          11.814     4.946    -4.820  O    
     24 Br          4.915    -5.679    -4.057  Br   
     25 H          -0.992    -6.256    -4.435  H    
     26 H           0.147    -7.556    -4.808  H    
     27 H          -0.574    -6.615    -6.121  H    
     28 H           2.425    -6.913    -4.421  H    
     29 H          -0.273    -3.934    -5.650  H    
     30 H           3.542    -1.737    -5.163  H    
     31 H           5.416    -2.891    -3.529  H    
     32 H           5.827    -3.260    -5.230  H    
     33 H           7.688    -1.951    -4.198  H    
     34 H           9.615    -0.751    -4.069  H    
     35 H           8.075     2.463    -4.936  H    
     36 H           9.222     4.552    -5.110  H    
     37 H          12.882     2.650    -4.286  H    
     38 H          11.479    -0.516    -4.236  H    
     39 H          11.128     5.623    -5.038  H    
@<TRIPOS>BOND
     1    1    2 1
     2    2    7 ar
     3    2    3 ar
     4    3    4 ar
     5    4    5 ar
     6    4   24 1
     7    5    6 ar
     8    5    9 1
     9    6    7 ar
    10    6    8 1
    11    9   10 1
    12   10   11 1
    13   11   12 2
    14   11   13 1
    15   13   14 1
    16   14   15 2
    17   15   16 1
    18   16   21 ar
    19   16   17 ar
    20   17   18 ar
    21   18   19 ar
    22   19   20 ar
    23   19   23 1
    24   20   21 ar
    25   21   22 1
    26    1   25 1
    27    1   26 1
    28    1   27 1
    29    3   28 1
    30    7   29 1
    31    9   30 1
    32   10   31 1
    33   10   32 1
    34   13   33 1
    35   15   34 1
    36   17   35 1
    37   18   36 1
    38   20   37 1
    39   22   38 1
    40   23   39 1
@<TRIPOS>MOLECULE
ZINC01080818
 59 62 0 0 0
SMALL
NO_CHARGES


@<TRIPOS>ATOM
      1 C           5.929    -1.395     1.478  C    
      2 O           6.273    -2.771     1.256  O    
      3 C           6.528    -3.065    -0.056  C    
      4 C           5.488    -3.515    -0.900  C    
      5 C           5.762    -3.883    -2.229  C    
      6 C           7.080    -3.826    -2.726  C    
      7 C           8.116    -3.354    -1.888  C    
      8 C           7.845    -2.987    -0.555  C    
      9 O           7.311    -4.229    -4.015  O    
     10 C           8.063    -5.456    -4.091  C    
     11 C           7.363    -6.754    -3.569  C    
     12 N           7.424    -7.195    -4.922  N    
     13 C           7.971    -6.095    -5.370  C    
     14 O           8.265    -5.715    -6.491  O    
     15 C           6.866    -8.336    -5.583  C    
     16 C           7.640    -9.643    -5.262  C    
     17 C           7.067   -10.846    -5.923  C    
     18 C           6.465   -11.877    -5.168  C    
     19 C           5.953   -13.024    -5.799  C    
     20 C           6.038   -13.165    -7.198  C    
     21 C           6.665   -12.160    -7.962  C    
     22 C           7.156   -11.002    -7.326  C    
     23 O           6.759   -12.298    -9.323  O    
     24 C           8.012   -12.842    -9.762  C    
     25 O           5.580   -14.314    -7.788  O    
     26 C           4.237   -14.214    -8.284  C    
     27 C           8.103    -7.518    -2.521  C    
     28 C           9.423    -7.989    -2.732  C    
     29 C          10.101    -8.702    -1.726  C    
     30 C           9.473    -8.951    -0.492  C    
     31 C           8.165    -8.485    -0.261  C    
     32 C           7.487    -7.773    -1.270  C    
     33 F           7.580    -8.712     0.886  F    
     34 H           6.742    -0.730     1.176  H    
     35 H           5.753    -1.255     2.546  H    
     36 H           5.013    -1.123     0.944  H    
     37 H           4.532    -3.586    -0.545  H    
     38 H           4.999    -4.207    -2.834  H    
     39 H           9.071    -3.298    -2.242  H    
     40 H           8.610    -2.676     0.053  H    
     41 H           9.112    -5.342    -3.799  H    
     42 H           6.316    -6.572    -3.298  H    
     43 H           5.823    -8.444    -5.273  H    
     44 H           6.877    -8.167    -6.663  H    
     45 H           8.684    -9.529    -5.576  H    
     46 H           7.646    -9.784    -4.178  H    
     47 H           6.395   -11.801    -4.148  H    
     48 H           5.521   -13.761    -5.236  H    
     49 H           7.601   -10.276    -7.890  H    
     50 H           8.822   -12.128    -9.597  H    
     51 H           7.944   -13.036   -10.835  H    
     52 H           8.249   -13.786    -9.257  H    
     53 H           3.533   -14.012    -7.475  H    
     54 H           3.968   -15.167    -8.739  H    
     55 H           4.148   -13.439    -9.046  H    
     56 H           9.902    -7.824    -3.621  H    
     57 H          11.054    -9.039    -1.890  H    
     58 H           9.975    -9.471     0.231  H    
     59 H           6.538    -7.435    -1.085  H    
@<TRIPOS>BOND
     1    1    2 1
     2    2    3 1
     3    3    8 ar
     4    3    4 ar
     5    4    5 ar
     6    5    6 ar
     7    6    7 ar
     8    6    9 1
     9    7    8 ar
    10    9   10 1
    11   10   13 1
    12   10   11 1
    13   11   12 1
    14   11   27 1
    15   12   13 1
    16   12   15 1
    17   13   14 2
    18   15   16 1
    19   16   17 1
    20   17   22 ar
    21   17   18 ar
    22   18   19 ar
    23   19   20 ar
    24   20   21 ar
    25   20   25 1
    26   21   22 ar
    27   21   23 1
    28   23   24 1
    29   25   26 1
    30   27   32 ar
    31   27   28 ar
    32   28   29 ar
    33   29   30 ar
    34   30   31 ar
    35   31   32 ar
    36   31   33 1
    37    1   34 1
    38    1   35 1
    39    1   36 1
    40    4   37 1
    41    5   38 1
    42    7   39 1
    43    8   40 1
    44   10   41 1
    45   11   42 1
    46   15   43 1
    47   15   44 1
    48   16   45 1
    49   16   46 1
    50   18   47 1
    51   19   48 1
    52   22   49 1
    53   24   50 1
    54   24   51 1
    55   24   52 1
    56   26   53 1
    57   26   54 1
    58   26   55 1
    59   28   56 1
    60   29   57 1
    61   30   58 1
    62   32   59 1
@<TRIPOS>MOLECULE
ZINC01089213
 53 55 0 0 0
SMALL
NO_CHARGES


@<TRIPOS>ATOM
      1 C          -0.809    -8.363    -4.497  C    
      2 O           0.538    -8.823    -4.702  O    
      3 C           1.455    -8.196    -3.901  C    
      4 C           1.788    -8.788    -2.669  C    
      5 C           2.729    -8.179    -1.827  C    
      6 C           3.353    -6.983    -2.221  C    
      7 C           3.061    -6.373    -3.469  C    
      8 C           2.106    -7.009    -4.315  C    
      9 O           1.791    -6.489    -5.533  O    
     10 C           3.733    -5.193    -3.798  C    
     11 N           3.601    -4.593    -4.923  N    
     12 N           4.195    -3.522    -5.262  N    
     13 C           4.054    -2.947    -6.446  C    
     14 O           3.317    -3.449    -7.288  O    
     15 C           4.792    -1.715    -6.728  C    
     16 C           6.328    -1.975    -6.766  C    
     17 C           7.122    -0.676    -7.059  C    
     18 C           5.204     0.282    -8.303  C    
     19 C           4.360    -0.992    -8.043  C    
     20 C           7.514     1.154    -8.704  C    
     21 C           7.392     1.503   -10.146  C    
     22 C           7.824     0.584   -11.130  C    
     23 C           7.731     0.898   -12.499  C    
     24 C           7.201     2.138   -12.903  C    
     25 C           6.764     3.060   -11.933  C    
     26 C           6.860     2.745   -10.564  C    
     27 Cl          7.091     2.516   -14.549  Cl   
     28 N           6.670    -0.028    -8.331  N    
     29 H          -1.133    -8.522    -3.465  H    
     30 H          -1.468    -8.933    -5.153  H    
     31 H          -0.909    -7.305    -4.748  H    
     32 H           1.335    -9.657    -2.376  H    
     33 H           2.965    -8.609    -0.929  H    
     34 H           4.041    -6.570    -1.584  H    
     35 H           1.203    -7.139    -5.972  H    
     36 H           4.363    -4.797    -3.133  H    
     37 H           4.786    -3.102    -4.616  H    
     38 H           4.583    -1.024    -5.903  H    
     39 H           6.667    -2.379    -5.808  H    
     40 H           6.557    -2.711    -7.542  H    
     41 H           7.012     0.017    -6.218  H    
     42 H           8.180    -0.946    -7.134  H    
     43 H           4.889     0.698    -9.263  H    
     44 H           4.985     1.025    -7.530  H    
     45 H           4.482    -1.667    -8.895  H    
     46 H           3.304    -0.712    -7.981  H    
     47 H           8.571     0.939    -8.527  H    
     48 H           7.259     2.006    -8.067  H    
     49 H           8.216    -0.320   -10.855  H    
     50 H           8.052     0.221   -13.195  H    
     51 H           6.376     3.962   -12.218  H    
     52 H           6.535     3.428    -9.876  H    
     53 H           6.804    -0.726    -9.066  H    
@<TRIPOS>BOND
     1    1    2 1
     2    2    3 1
     3    3    8 ar
     4    3    4 ar
     5    4    5 ar
     6    5    6 ar
     7    6    7 ar
     8    7    8 ar
     9    7   10 1
    10    8    9 1
    11   10   11 2
    12   11   12 1
    13   12   13 1
    14   13   14 2
    15   13   15 1
    16   15   19 1
    17   15   16 1
    18   16   17 1
    19   17   28 1
    20   18   19 1
    21   18   28 1
    22   20   21 1
    23   20   28 1
    24   21   26 ar
    25   21   22 ar
    26   22   23 ar
    27   23   24 ar
    28   24   25 ar
    29   24   27 1
    30   25   26 ar
    31    1   29 1
    32    1   30 1
    33    1   31 1
    34    4   32 1
    35    5   33 1
    36    6   34 1
    37    9   35 1
    38   10   36 1
    39   12   37 1
    40   15   38 1
    41   16   39 1
    42   16   40 1
    43   17   41 1
    44   17   42 1
    45   18   43 1
    46   18   44 1
    47   19   45 1
    48   19   46 1
    49   20   47 1
    50   20   48 1
    51   22   49 1
    52   23   50 1
    53   25   51 1
    54   26   52 1
    55   28   53 1
@<TRIPOS>MOLECULE
ZINC01093260
 49 51 0 0 0
SMALL
NO_CHARGES


@<TRIPOS>ATOM
      1 C           3.577     1.109    -4.927  C    
      2 C           4.709     1.856    -5.309  C    
      3 C           5.964     1.511    -4.771  C    
      4 N           6.064     0.472    -3.905  N    
      5 C           4.996    -0.277    -3.512  C    
      6 C           3.715     0.036    -4.026  C    
      7 C           5.210    -1.408    -2.581  C    
      8 N           5.307    -2.640    -3.298  N    
      9 C           4.320    -3.464    -3.622  C    
     10 O           3.156    -3.222    -3.315  O    
     11 C           4.610    -4.694    -4.335  C    
     12 N           4.244    -5.852    -3.552  N    
     13 C           2.959    -6.502    -3.714  C    
     14 C           3.123    -7.917    -4.144  C    
     15 C           2.767    -8.983    -3.287  C    
     16 C           3.039   -10.312    -3.652  C    
     17 C           3.671   -10.605    -4.880  C    
     18 C           4.003    -9.547    -5.759  C    
     19 C           3.720    -8.215    -5.391  C    
     20 Cl          4.769    -9.822    -7.250  Cl   
     21 Cl          4.020   -12.227    -5.234  Cl   
     22 S           5.282    -6.389    -2.317  S    
     23 O           6.391    -5.296    -1.987  O    
     24 O           4.477    -6.520    -0.950  O    
     25 C           6.126    -7.859    -2.726  C    
     26 C           6.833    -7.942    -3.946  C    
     27 C           7.424    -9.154    -4.347  C    
     28 C           7.324   -10.298    -3.527  C    
     29 C           6.643   -10.211    -2.293  C    
     30 C           6.050    -8.998    -1.895  C    
     31 Cl          7.987   -11.770    -4.035  Cl   
     32 H           2.658     1.349    -5.305  H    
     33 H           4.621     2.635    -5.963  H    
     34 H           6.802     2.036    -5.033  H    
     35 H           2.886    -0.498    -3.749  H    
     36 H           6.163    -1.268    -2.062  H    
     37 H           4.427    -1.439    -1.814  H    
     38 H           6.200    -2.915    -3.561  H    
     39 H           4.075    -4.683    -5.290  H    
     40 H           5.674    -4.760    -4.590  H    
     41 H           2.417    -6.434    -2.765  H    
     42 H           2.338    -5.992    -4.455  H    
     43 H           2.342    -8.799    -2.373  H    
     44 H           2.790   -11.066    -3.007  H    
     45 H           3.986    -7.449    -6.017  H    
     46 H           6.898    -7.129    -4.564  H    
     47 H           7.908    -9.206    -5.248  H    
     48 H           6.560   -11.035    -1.690  H    
     49 H           5.544    -8.962    -1.007  H    
@<TRIPOS>BOND
     1    1    6 ar
     2    1    2 ar
     3    2    3 ar
     4    3    4 ar
     5    4    5 ar
     6    5    6 ar
     7    5    7 1
     8    7    8 1
     9    8    9 1
    10    9   10 2
    11    9   11 1
    12   11   12 1
    13   12   13 1
    14   12   22 1
    15   13   14 1
    16   14   19 ar
    17   14   15 ar
    18   15   16 ar
    19   16   17 ar
    20   17   18 ar
    21   17   21 1
    22   18   19 ar
    23   18   20 1
    24   22   23 2
    25   22   24 2
    26   22   25 1
    27   25   30 ar
    28   25   26 ar
    29   26   27 ar
    30   27   28 ar
    31   28   29 ar
    32   28   31 1
    33   29   30 ar
    34    1   32 1
    35    2   33 1
    36    3   34 1
    37    6   35 1
    38    7   36 1
    39    7   37 1
    40    8   38 1
    41   11   39 1
    42   11   40 1
    43   13   41 1
    44   13   42 1
    45   15   43 1
    46   16   44 1
    47   19   45 1
    48   26   46 1
    49   27   47 1
    50   29   48 1
    51   30   49 1
@<TRIPOS>MOLECULE
ZINC01096169
 45 46 0 0 0
SMALL
NO_CHARGES


@<TRIPOS>ATOM
      1 C           7.154   -11.359    -1.533  C    
      2 C           6.352   -10.190    -2.138  C    
      3 O           5.714   -10.658    -3.343  O    
      4 C           4.887    -9.866    -4.112  C    
      5 C           4.622    -8.500    -3.883  C    
      6 C           3.749    -7.756    -4.717  C    
      7 C           3.105    -8.431    -5.781  C    
      8 C           3.376    -9.782    -6.045  C    
      9 C           4.256   -10.504    -5.212  C    
     10 O           4.493   -11.811    -5.496  O    
     11 Cl          2.596   -10.518    -7.360  Cl   
     12 C           3.481    -6.395    -4.507  C    
     13 C           4.356    -5.393    -4.196  C    
     14 C           5.622    -5.626    -4.331  C    
     15 N           6.731    -5.839    -4.569  N    
     16 C           3.947    -4.089    -4.019  C    
     17 O           2.756    -3.827    -3.858  O    
     18 N           4.825    -3.082    -3.908  N    
     19 C           4.525    -1.703    -3.669  C    
     20 C           3.924    -0.985    -4.903  C    
     21 C           3.618     0.438    -4.614  C    
     22 C           2.350     0.824    -4.119  C    
     23 C           2.070     2.167    -3.810  C    
     24 C           3.060     3.149    -4.000  C    
     25 C           4.326     2.786    -4.497  C    
     26 C           4.597     1.442    -4.803  C    
     27 H           6.479   -12.183    -1.285  H    
     28 H           7.671   -11.040    -0.628  H    
     29 H           7.891   -11.716    -2.257  H    
     30 H           5.611    -9.853    -1.409  H    
     31 H           7.038    -9.370    -2.360  H    
     32 H           5.056    -8.035    -3.093  H    
     33 H           2.471    -7.920    -6.393  H    
     34 H           5.118   -12.148    -4.818  H    
     35 H           2.539    -6.133    -4.697  H    
     36 H           5.776    -3.305    -3.933  H    
     37 H           3.853    -1.613    -2.813  H    
     38 H           5.460    -1.208    -3.398  H    
     39 H           4.622    -1.056    -5.737  H    
     40 H           3.015    -1.500    -5.220  H    
     41 H           1.630     0.128    -3.958  H    
     42 H           1.159     2.430    -3.442  H    
     43 H           2.863     4.118    -3.774  H    
     44 H           5.043     3.497    -4.625  H    
     45 H           5.520     1.197    -5.145  H    
@<TRIPOS>BOND
     1    1    2 1
     2    2    3 1
     3    3    4 1
     4    4    9 ar
     5    4    5 ar
     6    5    6 ar
     7    6    7 ar
     8    6   12 1
     9    7    8 ar
    10    8    9 ar
    11    8   11 1
    12    9   10 1
    13   12   13 2
    14   13   14 1
    15   13   16 1
    16   14   15 3
    17   16   17 2
    18   16   18 1
    19   18   19 1
    20   19   20 1
    21   20   21 1
    22   21   26 ar
    23   21   22 ar
    24   22   23 ar
    25   23   24 ar
    26   24   25 ar
    27   25   26 ar
    28    1   27 1
    29    1   28 1
    30    1   29 1
    31    2   30 1
    32    2   31 1
    33    5   32 1
    34    7   33 1
    35   10   34 1
    36   12   35 1
    37   18   36 1
    38   19   37 1
    39   19   38 1
    40   20   39 1
    41   20   40 1
    42   22   41 1
    43   23   42 1
    44   24   43 1
    45   25   44 1
    46   26   45 1
@<TRIPOS>MOLECULE
ZINC01118139
 47 48 0 0 0
SMALL
NO_CHARGES


@<TRIPOS>ATOM
      1 C           1.861   -13.488    -4.376  C    
      2 C           2.164   -12.075    -4.535  C    
      3 O           2.299   -11.697    -5.695  O    
      4 C           2.294   -11.145    -3.489  C    
      5 C           1.649   -11.327    -2.239  C    
      6 C           1.789   -10.384    -1.207  C    
      7 C           2.563    -9.229    -1.406  C    
      8 C           3.198    -8.986    -2.648  C    
      9 C           3.058    -9.960    -3.666  C    
     10 N           3.955    -7.885    -2.969  N    
     11 C           4.114    -6.718    -2.358  C    
     12 O           3.534    -6.428    -1.318  O    
     13 N           4.862    -5.824    -3.000  N    
     14 C           5.121    -4.529    -2.635  C    
     15 C           5.570    -4.253    -1.321  C    
     16 C           5.884    -2.944    -0.914  C    
     17 C           5.802    -1.891    -1.847  C    
     18 C           5.364    -2.156    -3.160  C    
     19 C           5.028    -3.467    -3.583  C    
     20 C           4.580    -3.656    -4.926  C    
     21 O           3.884    -4.758    -5.294  O    
     22 O           4.817    -2.708    -5.875  O    
     23 C           4.419    -2.751    -7.249  C    
     24 O           6.077    -0.607    -1.459  O    
     25 C           7.440    -0.211    -1.701  C    
     26 O           6.336    -2.710     0.357  O    
     27 C           5.284    -2.465     1.303  C    
     28 H           0.852   -13.688    -4.744  H    
     29 H           1.929   -13.820    -3.338  H    
     30 H           2.571   -14.087    -4.954  H    
     31 H           1.046   -12.135    -2.067  H    
     32 H           1.321   -10.538    -0.309  H    
     33 H           2.657    -8.580    -0.625  H    
     34 H           3.531    -9.797    -4.561  H    
     35 H           4.427    -7.955    -3.815  H    
     36 H           5.168    -6.082    -3.887  H    
     37 H           5.690    -5.017    -0.651  H    
     38 H           5.284    -1.364    -3.804  H    
     39 H           4.869    -3.614    -7.746  H    
     40 H           4.761    -1.841    -7.743  H    
     41 H           3.331    -2.812    -7.326  H    
     42 H           8.151    -0.865    -1.177  H    
     43 H           7.564     0.806    -1.320  H    
     44 H           7.666    -0.208    -2.775  H    
     45 H           4.661    -1.611     1.006  H    
     46 H           5.746    -2.233     2.267  H    
     47 H           4.652    -3.350     1.430  H    
@<TRIPOS>BOND
     1    1    2 1
     2    2    3 2
     3    2    4 1
     4    4    9 ar
     5    4    5 ar
     6    5    6 ar
     7    6    7 ar
     8    7    8 ar
     9    8    9 ar
    10    8   10 1
    11   10   11 1
    12   11   12 2
    13   11   13 1
    14   13   14 1
    15   14   19 ar
    16   14   15 ar
    17   15   16 ar
    18   16   17 ar
    19   16   26 1
    20   17   18 ar
    21   17   24 1
    22   18   19 ar
    23   19   20 1
    24   20   21 2
    25   20   22 1
    26   22   23 1
    27   24   25 1
    28   26   27 1
    29    1   28 1
    30    1   29 1
    31    1   30 1
    32    5   31 1
    33    6   32 1
    34    7   33 1
    35    9   34 1
    36   10   35 1
    37   13   36 1
    38   15   37 1
    39   18   38 1
    40   23   39 1
    41   23   40 1
    42   23   41 1
    43   25   42 1
    44   25   43 1
    45   25   44 1
    46   27   45 1
    47   27   46 1
    48   27   47 1
@<TRIPOS>MOLECULE
ZINC01130050
 59 62 0 0 0
SMALL
NO_CHARGES


@<TRIPOS>ATOM
      1 C          11.071     3.447    -5.267  C    
      2 C           9.832     2.794    -4.620  C    
      3 O           8.647     3.408    -5.160  O    
      4 C           7.479     2.864    -4.691  C    
      5 C           6.955     3.280    -3.449  C    
      6 C           5.737     2.752    -2.960  C    
      7 C           5.013     1.853    -3.782  C    
      8 C           5.514     1.463    -5.036  C    
      9 C           6.759     1.947    -5.487  C    
     10 O           7.235     1.614    -6.728  O    
     11 C           7.734     0.264    -6.843  C    
     12 C           8.381     0.030    -8.120  C    
     13 O           8.458     0.942    -8.934  O    
     14 N           8.832    -1.192    -8.372  N    
     15 C           9.488    -1.699    -9.463  C    
     16 C          10.196    -0.934   -10.425  C    
     17 C          10.856    -1.562   -11.499  C    
     18 C          10.827    -2.962   -11.623  C    
     19 C          10.146    -3.735   -10.668  C    
     20 C           9.487    -3.107    -9.595  C    
     21 C           5.239     3.189    -1.737  C    
     22 C           4.647     2.445    -0.775  C    
     23 C           4.569     1.104    -0.605  C    
     24 N           3.736     0.883     0.346  N    
     25 N           3.363     1.956     0.904  N    
     26 C           3.933     2.955     0.249  C    
     27 O           3.873     4.139     0.560  O    
     28 C           2.549     1.994     2.015  C    
     29 C           2.634     0.980     3.006  C    
     30 C           1.807     1.004     4.144  C    
     31 C           0.868     2.042     4.310  C    
     32 C           0.760     3.051     3.334  C    
     33 C           1.590     3.024     2.197  C    
     34 F           0.100     2.066     5.365  F    
     35 C           5.359     0.128    -1.078  C    
     36 H          11.021     3.353    -6.354  H    
     37 H          11.980     2.958    -4.913  H    
     38 H          11.114     4.507    -5.004  H    
     39 H           9.852     1.718    -4.833  H    
     40 H           9.885     2.940    -3.535  H    
     41 H           7.481     3.961    -2.893  H    
     42 H           4.100     1.494    -3.486  H    
     43 H           4.967     0.828    -5.622  H    
     44 H           8.466     0.058    -6.053  H    
     45 H           6.902    -0.444    -6.742  H    
     46 H           8.631    -1.846    -7.682  H    
     47 H          10.264     0.080   -10.347  H    
     48 H          11.365    -1.000   -12.186  H    
     49 H          11.309    -3.417   -12.401  H    
     50 H          10.132    -4.754   -10.751  H    
     51 H           8.996    -3.690    -8.911  H    
     52 H           5.320     4.167    -1.573  H    
     53 H           3.528     0.028     0.668  H    
     54 H           3.318     0.225     2.914  H    
     55 H           1.890     0.264     4.849  H    
     56 H           0.072     3.804     3.445  H    
     57 H           1.472     3.756     1.491  H    
     58 H           5.228    -0.813    -0.786  H    
     59 H           6.114     0.327    -1.686  H    
@<TRIPOS>BOND
     1    1    2 1
     2    2    3 1
     3    3    4 1
     4    4    9 ar
     5    4    5 ar
     6    5    6 ar
     7    6    7 ar
     8    6   21 1
     9    7    8 ar
    10    8    9 ar
    11    9   10 1
    12   10   11 1
    13   11   12 1
    14   12   13 2
    15   12   14 1
    16   14   15 1
    17   15   20 ar
    18   15   16 ar
    19   16   17 ar
    20   17   18 ar
    21   18   19 ar
    22   19   20 ar
    23   21   22 2
    24   22   26 1
    25   22   23 1
    26   23   35 2
    27   23   24 1
    28   24   25 1
    29   25   26 1
    30   25   28 1
    31   26   27 2
    32   28   33 ar
    33   28   29 ar
    34   29   30 ar
    35   30   31 ar
    36   31   32 ar
    37   31   34 1
    38   32   33 ar
    39    1   36 1
    40    1   37 1
    41    1   38 1
    42    2   39 1
    43    2   40 1
    44    5   41 1
    45    7   42 1
    46    8   43 1
    47   11   44 1
    48   11   45 1
    49   14   46 1
    50   16   47 1
    51   17   48 1
    52   18   49 1
    53   19   50 1
    54   20   51 1
    55   21   52 1
    56   24   53 1
    57   29   54 1
    58   30   55 1
    59   32   56 1
    60   33   57 1
    61   35   58 1
    62   35   59 1
@<TRIPOS>MOLECULE
ZINC01130927
 58 61 0 0 0
SMALL
NO_CHARGES


@<TRIPOS>ATOM
      1 C           2.969    -1.432    -6.173  C    
      2 C           3.157    -0.173    -6.595  C    
      3 C           2.092     0.815    -6.708  C    
      4 N           2.380     1.989    -5.884  N    
      5 C           2.986     3.086    -6.421  C    
      6 O           3.320     3.085    -7.598  O    
      7 C           3.267     4.238    -5.660  C    
      8 C           3.867     5.492    -5.993  C    
      9 C           3.925     6.394    -4.906  C    
     10 S           3.238     5.639    -3.523  S    
     11 C           2.869     4.170    -4.320  C    
     12 N           2.289     3.081    -3.780  N    
     13 C           2.048     1.987    -4.541  C    
     14 S           1.232     0.690    -3.704  S    
     15 C           2.570     0.224    -2.576  C    
     16 C           2.176    -0.953    -1.830  C    
     17 O           2.078    -2.016    -2.430  O    
     18 N           1.872    -0.864    -0.540  N    
     19 C           1.400    -1.928     0.292  C    
     20 C           2.523    -2.925     0.692  C    
     21 C           2.013    -4.059     1.510  C    
     22 C           1.978    -5.379     0.992  C    
     23 C           1.495    -6.448     1.771  C    
     24 C           1.043    -6.215     3.084  C    
     25 C           1.076    -4.912     3.615  C    
     26 C           1.561    -3.843     2.837  C    
     27 C           4.453     7.779    -4.889  C    
     28 C           3.679     8.718    -5.853  C    
     29 C           4.013     8.513    -7.357  C    
     30 C           3.659     7.120    -7.949  C    
     31 C           4.417     5.917    -7.313  C    
     32 H           3.746    -2.054    -6.128  H    
     33 H           2.069    -1.757    -5.899  H    
     34 H           4.075     0.107    -6.861  H    
     35 H           2.004     1.075    -7.772  H    
     36 H           1.112     0.399    -6.447  H    
     37 H           3.482     0.006    -3.141  H    
     38 H           2.780     1.063    -1.904  H    
     39 H           1.914     0.017    -0.136  H    
     40 H           0.991    -1.471     1.197  H    
     41 H           0.582    -2.457    -0.208  H    
     42 H           2.997    -3.301    -0.218  H    
     43 H           3.293    -2.395     1.261  H    
     44 H           2.302    -5.576     0.040  H    
     45 H           1.473    -7.394     1.386  H    
     46 H           0.685    -6.993     3.649  H    
     47 H           0.750    -4.743     4.570  H    
     48 H           1.587    -2.906     3.249  H    
     49 H           4.365     8.189    -3.878  H    
     50 H           5.516     7.775    -5.145  H    
     51 H           2.601     8.608    -5.701  H    
     52 H           3.936     9.753    -5.601  H    
     53 H           3.462     9.268    -7.929  H    
     54 H           5.081     8.707    -7.515  H    
     55 H           2.579     6.956    -7.884  H    
     56 H           3.916     7.153    -9.015  H    
     57 H           5.474     6.179    -7.190  H    
     58 H           4.394     5.109    -8.039  H    
@<TRIPOS>BOND
     1    1    2 2
     2    2    3 1
     3    3    4 1
     4    4   13 1
     5    4    5 1
     6    5    6 2
     7    5    7 1
     8    7   11 2
     9    7    8 1
    10    8   31 1
    11    8    9 2
    12    9   10 1
    13    9   27 1
    14   10   11 1
    15   11   12 1
    16   12   13 2
    17   13   14 1
    18   14   15 1
    19   15   16 1
    20   16   17 2
    21   16   18 1
    22   18   19 1
    23   19   20 1
    24   20   21 1
    25   21   26 ar
    26   21   22 ar
    27   22   23 ar
    28   23   24 ar
    29   24   25 ar
    30   25   26 ar
    31   27   28 1
    32   28   29 1
    33   29   30 1
    34   30   31 1
    35    1   32 1
    36    1   33 1
    37    2   34 1
    38    3   35 1
    39    3   36 1
    40   15   37 1
    41   15   38 1
    42   18   39 1
    43   19   40 1
    44   19   41 1
    45   20   42 1
    46   20   43 1
    47   22   44 1
    48   23   45 1
    49   24   46 1
    50   25   47 1
    51   26   48 1
    52   27   49 1
    53   27   50 1
    54   28   51 1
    55   28   52 1
    56   29   53 1
    57   29   54 1
    58   30   55 1
    59   30   56 1
    60   31   57 1
    61   31   58 1
@<TRIPOS>MOLECULE
ZINC01151493
 47 48 0 0 0
SMALL
NO_CHARGES


@<TRIPOS>ATOM
      1 C          -0.557    -6.719    -7.535  C    
      2 C           0.377    -5.474    -7.533  C    
      3 C           1.109    -5.306    -6.158  C    
      4 C           1.910    -4.103    -5.964  C    
      5 O           1.969    -3.254    -6.844  O    
      6 N           2.598    -3.991    -4.830  N    
      7 C           3.426    -2.994    -4.377  C    
      8 C           3.390    -1.645    -4.803  C    
      9 C           4.266    -0.683    -4.257  C    
     10 C           5.200    -1.080    -3.279  C    
     11 C           5.247    -2.413    -2.806  C    
     12 C           4.348    -3.353    -3.368  C    
     13 C           6.161    -2.790    -1.786  C    
     14 O           6.222    -4.071    -1.340  O    
     15 O           6.993    -1.865    -1.230  O    
     16 C           7.959    -2.087    -0.201  C    
     17 C           4.219     0.662    -4.679  C    
     18 O           5.367     1.252    -5.099  O    
     19 O           3.125     1.466    -4.613  O    
     20 C           1.806     1.184    -4.130  C    
     21 C           1.310    -5.519    -8.708  C    
     22 C           2.311    -6.518    -8.821  C    
     23 C           3.180    -6.559    -9.925  C    
     24 C           3.065    -5.597   -10.946  C    
     25 C           2.076    -4.599   -10.859  C    
     26 C           1.210    -4.558    -9.750  C    
     27 H           0.012    -7.638    -7.378  H    
     28 H          -1.085    -6.794    -8.487  H    
     29 H          -1.300    -6.634    -6.740  H    
     30 H          -0.286    -4.608    -7.637  H    
     31 H           0.354    -5.311    -5.368  H    
     32 H           1.752    -6.173    -5.991  H    
     33 H           2.537    -4.764    -4.245  H    
     34 H           2.719    -1.353    -5.514  H    
     35 H           5.836    -0.377    -2.887  H    
     36 H           4.363    -4.325    -3.040  H    
     37 H           7.471    -2.442     0.709  H    
     38 H           8.470    -1.149     0.015  H    
     39 H           8.696    -2.824    -0.527  H    
     40 H           1.304     0.456    -4.764  H    
     41 H           1.227     2.112    -4.139  H    
     42 H           1.848     0.810    -3.105  H    
     43 H           2.411    -7.231    -8.093  H    
     44 H           3.893    -7.289    -9.990  H    
     45 H           3.700    -5.622   -11.749  H    
     46 H           1.988    -3.905   -11.608  H    
     47 H           0.501    -3.824    -9.713  H    
@<TRIPOS>BOND
     1    1    2 1
     2    2    3 1
     3    2   21 1
     4    3    4 1
     5    4    5 2
     6    4    6 1
     7    6    7 1
     8    7   12 ar
     9    7    8 ar
    10    8    9 ar
    11    9   10 ar
    12    9   17 1
    13   10   11 ar
    14   11   12 ar
    15   11   13 1
    16   13   14 2
    17   13   15 1
    18   15   16 1
    19   17   18 2
    20   17   19 1
    21   19   20 1
    22   21   26 ar
    23   21   22 ar
    24   22   23 ar
    25   23   24 ar
    26   24   25 ar
    27   25   26 ar
    28    1   27 1
    29    1   28 1
    30    1   29 1
    31    2   30 1
    32    3   31 1
    33    3   32 1
    34    6   33 1
    35    8   34 1
    36   10   35 1
    37   12   36 1
    38   16   37 1
    39   16   38 1
    40   16   39 1
    41   20   40 1
    42   20   41 1
    43   20   42 1
    44   22   43 1
    45   23   44 1
    46   24   45 1
    47   25   46 1
    48   26   47 1
@<TRIPOS>MOLECULE
ZINC01151884
 43 45 0 0 0
SMALL
NO_CHARGES


@<TRIPOS>ATOM
      1 C          -2.595    -7.829    -2.215  C    
      2 C          -1.457    -8.519    -2.674  C    
      3 C          -0.222    -7.854    -2.763  C    
      4 C          -0.106    -6.491    -2.393  C    
      5 C          -1.260    -5.813    -1.932  C    
      6 C          -2.497    -6.476    -1.846  C    
      7 C           1.190    -5.777    -2.465  C    
      8 O           1.062    -4.655    -3.362  O    
      9 C           2.230    -3.989    -3.644  C    
     10 C           2.892    -3.197    -2.683  C    
     11 C           4.043    -2.474    -3.037  C    
     12 C           4.521    -2.515    -4.357  C    
     13 C           3.862    -3.280    -5.352  C    
     14 C           2.716    -4.020    -4.966  C    
     15 C           4.278    -3.295    -6.682  C    
     16 N           5.276    -2.604    -7.101  N    
     17 N           5.651    -2.549    -8.310  N    
     18 C           6.703    -1.826    -8.740  C    
     19 N           7.518    -1.100    -7.963  N    
     20 C           8.458    -0.460    -8.610  C    
     21 O           9.295     0.197    -8.007  O    
     22 C           8.437    -0.598   -10.053  C    
     23 S           7.108    -1.774   -10.421  S    
     24 C           8.178     0.738   -10.809  C    
     25 C           9.295     1.697   -10.707  C    
     26 O          10.505     1.395   -11.228  O    
     27 O           9.130     2.893   -10.091  O    
     28 H          -3.494    -8.309    -2.156  H    
     29 H          -1.529    -9.504    -2.941  H    
     30 H           0.594    -8.374    -3.096  H    
     31 H          -1.205    -4.829    -1.657  H    
     32 H          -3.325    -5.972    -1.516  H    
     33 H           1.445    -5.433    -1.457  H    
     34 H           1.985    -6.450    -2.805  H    
     35 H           2.537    -3.142    -1.726  H    
     36 H           4.522    -1.903    -2.337  H    
     37 H           5.350    -1.964    -4.587  H    
     38 H           2.203    -4.579    -5.656  H    
     39 H           3.768    -3.838    -7.342  H    
     40 H           7.424    -1.057    -6.997  H    
     41 H           9.373    -1.046   -10.393  H    
     42 H           8.018     0.531   -11.873  H    
     43 H           7.267     1.205   -10.423  H    
@<TRIPOS>BOND
     1    1    6 ar
     2    1    2 ar
     3    2    3 ar
     4    3    4 ar
     5    4    5 ar
     6    4    7 1
     7    5    6 ar
     8    7    8 1
     9    8    9 1
    10    9   14 ar
    11    9   10 ar
    12   10   11 ar
    13   11   12 ar
    14   12   13 ar
    15   13   14 ar
    16   13   15 1
    17   15   16 2
    18   16   17 1
    19   17   18 2
    20   18   23 1
    21   18   19 1
    22   19   20 1
    23   20   21 2
    24   20   22 1
    25   22   23 1
    26   22   24 1
    27   24   25 1
    28   25   26 2
    29   25   27 1
    30    1   28 1
    31    2   29 1
    32    3   30 1
    33    5   31 1
    34    6   32 1
    35    7   33 1
    36    7   34 1
    37   10   35 1
    38   11   36 1
    39   12   37 1
    40   14   38 1
    41   15   39 1
    42   19   40 1
    43   22   41 1
    44   24   42 1
    45   24   43 1
@<TRIPOS>MOLECULE
ZINC01173957
 52 54 0 0 0
SMALL
NO_CHARGES


@<TRIPOS>ATOM
      1 C           1.032    -9.325    -4.994  C    
      2 O           2.394    -9.392    -5.464  O    
      3 C           3.259    -9.943    -4.557  C    
      4 C           3.345   -11.345    -4.425  C    
      5 C           4.245   -11.921    -3.511  C    
      6 C           5.076   -11.099    -2.731  C    
      7 C           5.014    -9.702    -2.874  C    
      8 C           4.115    -9.113    -3.792  C    
      9 N           4.102    -7.757    -3.947  N    
     10 C           4.684    -7.142    -5.114  C    
     11 C           5.882    -6.397    -4.775  C    
     12 O           6.837    -7.026    -4.341  O    
     13 N           5.913    -5.085    -4.970  N    
     14 C           6.872    -4.159    -4.648  C    
     15 C           7.838    -4.338    -3.627  C    
     16 C           8.766    -3.325    -3.321  C    
     17 C           8.744    -2.117    -4.041  C    
     18 C           7.787    -1.919    -5.049  C    
     19 C           6.835    -2.920    -5.334  C    
     20 O           5.916    -2.693    -6.320  O    
     21 C           4.753    -1.977    -5.869  C    
     22 Cl          9.887    -3.550    -2.072  Cl   
     23 S           3.284    -6.807    -2.807  S    
     24 O           1.991    -6.169    -3.476  O    
     25 O           2.707    -7.741    -1.656  O    
     26 C           4.277    -5.613    -2.014  C    
     27 C           5.290    -6.022    -1.116  C    
     28 C           6.112    -5.066    -0.489  C    
     29 C           5.929    -3.695    -0.758  C    
     30 C           4.924    -3.280    -1.656  C    
     31 C           4.100    -4.236    -2.282  C    
     32 H           0.611   -10.322    -4.857  H    
     33 H           0.437    -8.809    -5.744  H    
     34 H           0.952    -8.769    -4.059  H    
     35 H           2.751   -11.950    -4.995  H    
     36 H           4.300   -12.937    -3.415  H    
     37 H           5.732   -11.519    -2.068  H    
     38 H           5.638    -9.117    -2.316  H    
     39 H           4.962    -7.888    -5.865  H    
     40 H           3.933    -6.500    -5.582  H    
     41 H           5.135    -4.724    -5.420  H    
     42 H           7.850    -5.192    -3.068  H    
     43 H           9.417    -1.376    -3.832  H    
     44 H           7.775    -1.034    -5.565  H    
     45 H           4.241    -2.516    -5.073  H    
     46 H           4.067    -1.874    -6.702  H    
     47 H           5.007    -0.976    -5.526  H    
     48 H           5.435    -7.015    -0.913  H    
     49 H           6.845    -5.368     0.160  H    
     50 H           6.530    -3.001    -0.308  H    
     51 H           4.796    -2.284    -1.858  H    
     52 H           3.380    -3.921    -2.939  H    
@<TRIPOS>BOND
     1    1    2 1
     2    2    3 1
     3    3    8 ar
     4    3    4 ar
     5    4    5 ar
     6    5    6 ar
     7    6    7 ar
     8    7    8 ar
     9    8    9 1
    10    9   10 1
    11    9   23 1
    12   10   11 1
    13   11   12 2
    14   11   13 1
    15   13   14 1
    16   14   19 ar
    17   14   15 ar
    18   15   16 ar
    19   16   17 ar
    20   16   22 1
    21   17   18 ar
    22   18   19 ar
    23   19   20 1
    24   20   21 1
    25   23   24 2
    26   23   25 2
    27   23   26 1
    28   26   31 ar
    29   26   27 ar
    30   27   28 ar
    31   28   29 ar
    32   29   30 ar
    33   30   31 ar
    34    1   32 1
    35    1   33 1
    36    1   34 1
    37    4   35 1
    38    5   36 1
    39    6   37 1
    40    7   38 1
    41   10   39 1
    42   10   40 1
    43   13   41 1
    44   15   42 1
    45   17   43 1
    46   18   44 1
    47   21   45 1
    48   21   46 1
    49   21   47 1
    50   27   48 1
    51   28   49 1
    52   29   50 1
    53   30   51 1
    54   31   52 1
@<TRIPOS>MOLECULE
ZINC01183930
 48 50 0 0 0
SMALL
NO_CHARGES


@<TRIPOS>ATOM
      1 C          -2.551    -8.386    -4.019  C    
      2 C          -1.617    -8.555    -2.980  C    
      3 C          -0.766    -7.493    -2.618  C    
      4 C          -0.834    -6.249    -3.290  C    
      5 C          -1.780    -6.096    -4.333  C    
      6 C          -2.631    -7.158    -4.696  C    
      7 C           0.072    -5.126    -2.924  C    
      8 C           1.186    -4.905    -3.988  C    
      9 C           2.153    -3.857    -3.692  C    
     10 O           2.066    -3.214    -2.653  O    
     11 N           3.128    -3.664    -4.569  N    
     12 C           4.168    -2.774    -4.606  C    
     13 C           4.309    -1.629    -3.787  C    
     14 C           5.422    -0.782    -3.925  C    
     15 C           6.397    -1.045    -4.900  C    
     16 C           6.276    -2.165    -5.759  C    
     17 C           5.158    -3.014    -5.586  C    
     18 N           7.153    -2.530    -6.751  N    
     19 C           8.213    -1.921    -7.287  C    
     20 O           8.552    -0.801    -6.911  O    
     21 C           8.956    -2.541    -8.298  C    
     22 C           8.982    -3.951    -8.441  C    
     23 C           9.748    -4.566    -9.444  C    
     24 C          10.495    -3.782   -10.336  C    
     25 C          10.502    -2.370   -10.246  C    
     26 C           9.736    -1.778    -9.209  C    
     27 N          11.215    -1.617   -11.134  N    
     28 O          11.219    -0.413   -11.106  O    
     29 O          11.911    -2.151   -12.101  O    
     30 H          -3.171    -9.154    -4.279  H    
     31 H          -1.553    -9.450    -2.491  H    
     32 H          -0.094    -7.637    -1.863  H    
     33 H          -1.856    -5.209    -4.835  H    
     34 H          -3.313    -7.031    -5.451  H    
     35 H          -0.520    -4.215    -2.802  H    
     36 H           0.552    -5.328    -1.962  H    
     37 H           1.732    -5.849    -4.113  H    
     38 H           0.711    -4.662    -4.945  H    
     39 H           3.112    -4.286    -5.314  H    
     40 H           3.608    -1.384    -3.088  H    
     41 H           5.519     0.035    -3.317  H    
     42 H           7.189    -0.407    -4.959  H    
     43 H           5.064    -3.836    -6.194  H    
     44 H           6.938    -3.380    -7.167  H    
     45 H           8.457    -4.557    -7.804  H    
     46 H           9.761    -5.582    -9.525  H    
     47 H          11.042    -4.261   -11.055  H    
     48 H           9.732    -0.758    -9.129  H    
@<TRIPOS>BOND
     1    1    6 ar
     2    1    2 ar
     3    2    3 ar
     4    3    4 ar
     5    4    5 ar
     6    4    7 1
     7    5    6 ar
     8    7    8 1
     9    8    9 1
    10    9   10 2
    11    9   11 1
    12   11   12 1
    13   12   17 ar
    14   12   13 ar
    15   13   14 ar
    16   14   15 ar
    17   15   16 ar
    18   16   17 ar
    19   16   18 1
    20   18   19 1
    21   19   20 2
    22   19   21 1
    23   21   26 ar
    24   21   22 ar
    25   22   23 ar
    26   23   24 ar
    27   24   25 ar
    28   25   26 ar
    29   25   27 1
    30   27   28 2
    31   27   29 1
    32    1   30 1
    33    2   31 1
    34    3   32 1
    35    5   33 1
    36    6   34 1
    37    7   35 1
    38    7   36 1
    39    8   37 1
    40    8   38 1
    41   11   39 1
    42   13   40 1
    43   14   41 1
    44   15   42 1
    45   17   43 1
    46   18   44 1
    47   22   45 1
    48   23   46 1
    49   24   47 1
    50   26   48 1
@<TRIPOS>MOLECULE
ZINC01217371
 56 57 0 0 0
SMALL
NO_CHARGES


@<TRIPOS>ATOM
      1 C           1.737    -8.587    -4.243  C    
      2 C           2.873    -8.101    -5.170  C    
      3 O           3.909    -7.373    -4.479  O    
      4 C           3.581    -6.096    -4.100  C    
      5 C           3.627    -5.048    -5.042  C    
      6 C           3.296    -3.714    -4.689  C    
      7 C           2.932    -3.473    -3.339  C    
      8 C           2.931    -4.501    -2.372  C    
      9 C           3.266    -5.816    -2.754  C    
     10 O           3.192    -6.832    -1.837  O    
     11 C           4.452    -7.165    -1.226  C    
     12 C           4.234    -8.321    -0.233  C    
     13 O           2.519    -4.264    -1.086  O    
     14 C           3.426    -3.474    -0.290  C    
     15 C           2.927    -3.457     1.166  C    
     16 C           3.316    -2.670    -5.626  C    
     17 O           3.362    -1.510    -5.230  O    
     18 N           3.338    -2.906    -6.935  N    
     19 C           3.422    -1.985    -7.946  C    
     20 C           2.374    -1.053    -8.204  C    
     21 C           2.513    -0.152    -9.284  C    
     22 C           3.644    -0.174   -10.124  C    
     23 C           4.652    -1.129    -9.878  C    
     24 C           4.552    -2.045    -8.807  C    
     25 C           5.639    -3.038    -8.589  C    
     26 C           3.746     0.790   -11.245  C    
     27 C           1.114    -1.027    -7.413  C    
     28 H           2.151    -9.187    -3.431  H    
     29 H           1.032    -9.198    -4.808  H    
     30 H           1.201    -7.738    -3.820  H    
     31 H           3.347    -8.982    -5.607  H    
     32 H           2.454    -7.516    -5.994  H    
     33 H           3.911    -5.280    -5.995  H    
     34 H           2.646    -2.536    -3.044  H    
     35 H           5.181    -7.483    -1.978  H    
     36 H           4.858    -6.309    -0.680  H    
     37 H           3.511    -8.030     0.531  H    
     38 H           5.177    -8.578     0.253  H    
     39 H           3.859    -9.201    -0.760  H    
     40 H           4.439    -3.889    -0.309  H    
     41 H           3.461    -2.445    -0.659  H    
     42 H           1.926    -3.023     1.215  H    
     43 H           3.601    -2.860     1.785  H    
     44 H           2.894    -4.474     1.561  H    
     45 H           3.419    -3.831    -7.208  H    
     46 H           1.772     0.529    -9.474  H    
     47 H           5.472    -1.155   -10.490  H    
     48 H           6.084    -2.886    -7.603  H    
     49 H           6.435    -2.962    -9.333  H    
     50 H           5.229    -4.049    -8.641  H    
     51 H           2.918     0.638   -11.938  H    
     52 H           4.680     0.681   -11.800  H    
     53 H           3.699     1.809   -10.857  H    
     54 H           0.792    -2.041    -7.170  H    
     55 H           0.298    -0.554    -7.960  H    
     56 H           1.269    -0.469    -6.489  H    
@<TRIPOS>BOND
     1    1    2 1
     2    2    3 1
     3    3    4 1
     4    4    9 ar
     5    4    5 ar
     6    5    6 ar
     7    6    7 ar
     8    6   16 1
     9    7    8 ar
    10    8    9 ar
    11    8   13 1
    12    9   10 1
    13   10   11 1
    14   11   12 1
    15   13   14 1
    16   14   15 1
    17   16   17 2
    18   16   18 1
    19   18   19 1
    20   19   24 ar
    21   19   20 ar
    22   20   21 ar
    23   20   27 1
    24   21   22 ar
    25   22   23 ar
    26   22   26 1
    27   23   24 ar
    28   24   25 1
    29    1   28 1
    30    1   29 1
    31    1   30 1
    32    2   31 1
    33    2   32 1
    34    5   33 1
    35    7   34 1
    36   11   35 1
    37   11   36 1
    38   12   37 1
    39   12   38 1
    40   12   39 1
    41   14   40 1
    42   14   41 1
    43   15   42 1
    44   15   43 1
    45   15   44 1
    46   18   45 1
    47   21   46 1
    48   23   47 1
    49   25   48 1
    50   25   49 1
    51   25   50 1
    52   26   51 1
    53   26   52 1
    54   26   53 1
    55   27   54 1
    56   27   55 1
    57   27   56 1
@<TRIPOS>MOLECULE
ZINC01338490
 62 65 0 0 0
SMALL
NO_CHARGES


@<TRIPOS>ATOM
      1 C           5.566   -10.775   -10.931  C    
      2 C           6.806   -10.197   -10.176  C    
      3 C           8.043   -11.064   -10.605  C    
      4 C           7.101    -8.731   -10.622  C    
      5 N           6.588   -10.247    -8.732  N    
      6 C           5.632    -9.711    -7.941  C    
      7 N           5.954   -10.084    -6.697  N    
      8 N           6.988   -10.780    -6.770  N    
      9 N           7.353   -10.873    -7.932  N    
     10 C           4.442    -8.849    -8.196  C    
     11 C           3.256    -9.735    -8.004  C    
     12 C           2.315   -10.104    -8.977  C    
     13 C           1.285   -10.941    -8.521  C    
     14 C           1.357   -11.249    -7.165  C    
     15 S           2.746   -10.466    -6.528  S    
     16 C           5.657    -6.738    -7.496  C    
     17 C           6.014    -5.993    -6.262  C    
     18 C           6.114    -4.582    -6.253  C    
     19 C           6.395    -3.890    -5.059  C    
     20 C           6.604    -4.584    -3.849  C    
     21 C           6.546    -5.999    -3.867  C    
     22 C           6.267    -6.689    -5.059  C    
     23 O           6.833    -3.795    -2.743  O    
     24 C           7.372    -4.370    -1.547  C    
     25 C           3.144    -6.810    -7.484  C    
     26 C           2.935    -5.704    -6.506  C    
     27 C           2.842    -4.370    -6.974  C    
     28 C           2.631    -3.304    -6.083  C    
     29 C           2.499    -3.552    -4.710  C    
     30 C           2.579    -4.865    -4.224  C    
     31 C           2.795    -5.941    -5.110  C    
     32 Cl          2.847    -7.496    -4.434  Cl   
     33 N           4.423    -7.598    -7.331  N    
     34 H           5.764   -10.859   -12.004  H    
     35 H           4.692   -10.139   -10.818  H    
     36 H           5.318   -11.768   -10.545  H    
     37 H           7.905   -12.106   -10.301  H    
     38 H           8.957   -10.691   -10.140  H    
     39 H           8.185   -11.045   -11.690  H    
     40 H           7.349    -8.685   -11.684  H    
     41 H           7.944    -8.327   -10.055  H    
     42 H           6.249    -8.074   -10.464  H    
     43 H           4.445    -8.515    -9.228  H    
     44 H           2.370    -9.790    -9.950  H    
     45 H           0.547   -11.291    -9.132  H    
     46 H           0.707   -11.834    -6.647  H    
     47 H           5.527    -6.058    -8.348  H    
     48 H           6.549    -7.331    -7.727  H    
     49 H           5.954    -4.043    -7.111  H    
     50 H           6.440    -2.868    -5.074  H    
     51 H           6.699    -6.543    -3.018  H    
     52 H           6.220    -7.710    -5.038  H    
     53 H           6.645    -5.025    -1.066  H    
     54 H           7.615    -3.566    -0.857  H    
     55 H           8.288    -4.927    -1.755  H    
     56 H           2.277    -7.458    -7.349  H    
     57 H           3.089    -6.434    -8.511  H    
     58 H           2.931    -4.159    -7.973  H    
     59 H           2.567    -2.346    -6.434  H    
     60 H           2.337    -2.780    -4.064  H    
     61 H           2.478    -5.040    -3.219  H    
     62 H           4.441    -7.938    -6.366  H    
@<TRIPOS>BOND
     1    1    2 1
     2    2    3 1
     3    2    4 1
     4    2    5 1
     5    5    9 1
     6    5    6 1
     7    6    7 2
     8    6   10 1
     9    7    8 1
    10    8    9 2
    11   10   11 1
    12   10   33 1
    13   11   15 1
    14   11   12 2
    15   12   13 1
    16   13   14 2
    17   14   15 1
    18   16   17 1
    19   16   33 1
    20   17   22 ar
    21   17   18 ar
    22   18   19 ar
    23   19   20 ar
    24   20   21 ar
    25   20   23 1
    26   21   22 ar
    27   23   24 1
    28   25   26 1
    29   25   33 1
    30   26   31 ar
    31   26   27 ar
    32   27   28 ar
    33   28   29 ar
    34   29   30 ar
    35   30   31 ar
    36   31   32 1
    37    1   34 1
    38    1   35 1
    39    1   36 1
    40    3   37 1
    41    3   38 1
    42    3   39 1
    43    4   40 1
    44    4   41 1
    45    4   42 1
    46   10   43 1
    47   12   44 1
    48   13   45 1
    49   14   46 1
    50   16   47 1
    51   16   48 1
    52   18   49 1
    53   19   50 1
    54   21   51 1
    55   22   52 1
    56   24   53 1
    57   24   54 1
    58   24   55 1
    59   25   56 1
    60   25   57 1
    61   27   58 1
    62   28   59 1
    63   29   60 1
    64   30   61 1
    65   33   62 1
@<TRIPOS>MOLECULE
ZINC01340185
 54 57 0 0 0
SMALL
NO_CHARGES


@<TRIPOS>ATOM
      1 C           0.799    -8.265    -3.839  C    
      2 C           1.773    -8.756    -4.725  C    
      3 C           2.732    -7.882    -5.272  C    
      4 C           2.722    -6.505    -4.945  C    
      5 C           1.734    -6.023    -4.055  C    
      6 C           0.777    -6.898    -3.505  C    
      7 C           3.711    -5.570    -5.541  C    
      8 C           3.144    -4.842    -6.793  C    
      9 N           4.016    -3.771    -7.275  N    
     10 C           3.533    -2.408    -7.088  C    
     11 C           3.633    -1.992    -5.676  C    
     12 N           2.547    -2.029    -4.854  N    
     13 C           2.617    -1.698    -3.569  C    
     14 O           1.589    -1.787    -2.909  O    
     15 C           3.822    -1.265    -3.005  C    
     16 C           3.964    -0.880    -1.652  C    
     17 C           5.214    -0.441    -1.166  C    
     18 C           6.324    -0.372    -2.030  C    
     19 C           6.196    -0.755    -3.379  C    
     20 C           4.953    -1.208    -3.865  C    
     21 N           4.828    -1.589    -5.170  N    
     22 C           5.196    -4.061    -7.870  C    
     23 O           5.498    -5.231    -8.078  O    
     24 C           6.184    -3.074    -8.283  C    
     25 O           7.391    -3.666    -8.813  O    
     26 C           8.487    -2.896    -9.126  C    
     27 C           8.496    -1.486    -9.289  C    
     28 C           9.685    -0.812    -9.628  C    
     29 C          10.878    -1.533    -9.821  C    
     30 C          10.879    -2.932    -9.674  C    
     31 C           9.690    -3.604    -9.331  C    
     32 H           0.098    -8.895    -3.448  H    
     33 H           1.786    -9.745    -4.971  H    
     34 H           3.428    -8.256    -5.918  H    
     35 H           1.699    -5.031    -3.805  H    
     36 H           0.069    -6.538    -2.864  H    
     37 H           4.007    -4.826    -4.796  H    
     38 H           4.617    -6.115    -5.811  H    
     39 H           2.978    -5.569    -7.595  H    
     40 H           2.152    -4.459    -6.532  H    
     41 H           4.058    -1.664    -7.685  H    
     42 H           2.494    -2.343    -7.419  H    
     43 H           1.697    -2.326    -5.218  H    
     44 H           3.168    -0.910    -1.009  H    
     45 H           5.311    -0.167    -0.190  H    
     46 H           7.224    -0.047    -1.676  H    
     47 H           7.006    -0.699    -4.000  H    
     48 H           5.742    -2.445    -9.061  H    
     49 H           6.443    -2.463    -7.415  H    
     50 H           7.645    -0.940    -9.162  H    
     51 H           9.684     0.205    -9.734  H    
     52 H          11.739    -1.042   -10.066  H    
     53 H          11.743    -3.460    -9.809  H    
     54 H           9.707    -4.619    -9.231  H    
@<TRIPOS>BOND
     1    1    6 ar
     2    1    2 ar
     3    2    3 ar
     4    3    4 ar
     5    4    5 ar
     6    4    7 1
     7    5    6 ar
     8    7    8 1
     9    8    9 1
    10    9   10 1
    11    9   22 1
    12   10   11 1
    13   11   21 2
    14   11   12 1
    15   12   13 1
    16   13   14 2
    17   13   15 1
    18   15   20 ar
    19   15   16 ar
    20   16   17 ar
    21   17   18 ar
    22   18   19 ar
    23   19   20 ar
    24   20   21 1
    25   22   23 2
    26   22   24 1
    27   24   25 1
    28   25   26 1
    29   26   31 ar
    30   26   27 ar
    31   27   28 ar
    32   28   29 ar
    33   29   30 ar
    34   30   31 ar
    35    1   32 1
    36    2   33 1
    37    3   34 1
    38    5   35 1
    39    6   36 1
    40    7   37 1
    41    7   38 1
    42    8   39 1
    43    8   40 1
    44   10   41 1
    45   10   42 1
    46   12   43 1
    47   16   44 1
    48   17   45 1
    49   18   46 1
    50   19   47 1
    51   24   48 1
    52   24   49 1
    53   27   50 1
    54   28   51 1
    55   29   52 1
    56   30   53 1
    57   31   54 1
@<TRIPOS>MOLECULE
ZINC01340429
 68 71 0 0 0
SMALL
NO_CHARGES


@<TRIPOS>ATOM
      1 C           0.254     0.650     0.498  C    
      2 C           0.608    -0.794     0.061  C    
      3 C           0.218    -1.941     0.947  C    
      4 C          -0.387    -1.733     2.214  C    
      5 C          -0.741    -2.814     3.035  C    
      6 C          -0.523    -4.124     2.592  C    
      7 C           0.065    -4.382     1.333  C    
      8 C           0.477    -3.279     0.525  C    
      9 N           1.084    -3.481    -0.684  N    
     10 C           2.316    -3.943    -0.881  C    
     11 O           3.037    -4.258     0.060  O    
     12 C           2.847    -4.024    -2.226  C    
     13 S           3.319    -5.727    -2.633  S    
     14 C           3.744    -5.468    -4.304  C    
     15 N           4.599    -4.501    -4.695  N    
     16 C           4.675    -4.567    -6.024  C    
     17 C           5.408    -3.774    -6.919  C    
     18 C           5.301    -4.035    -8.303  C    
     19 C           4.477    -5.087    -8.762  C    
     20 C           3.755    -5.881    -7.849  C    
     21 C           3.857    -5.604    -6.468  C    
     22 N           3.290    -6.163    -5.379  N    
     23 C           2.373    -7.282    -5.362  C    
     24 C           2.944    -8.571    -4.965  C    
     25 O           4.126    -8.547    -4.624  O    
     26 N           2.283    -9.749    -4.996  N    
     27 C           0.912    -9.896    -5.471  C    
     28 C           0.892   -10.779    -6.757  C    
     29 C           1.575   -12.150    -6.472  C    
     30 C           2.989   -11.970    -5.841  C    
     31 C           2.916   -11.006    -4.617  C    
     32 C           3.620   -13.336    -5.459  C    
     33 C          -0.544   -10.967    -7.318  C    
     34 C           0.173    -5.803     0.909  C    
     35 H          -0.827     0.758     0.625  H    
     36 H           0.581     1.358    -0.266  H    
     37 H           0.755     0.903     1.435  H    
     38 H           0.136    -0.947    -0.911  H    
     39 H           1.690    -0.831    -0.079  H    
     40 H          -0.576    -0.794     2.564  H    
     41 H          -1.174    -2.643     3.947  H    
     42 H          -0.815    -4.898     3.193  H    
     43 H           0.611    -3.147    -1.465  H    
     44 H           2.103    -3.687    -2.955  H    
     45 H           3.720    -3.372    -2.299  H    
     46 H           6.002    -3.016    -6.580  H    
     47 H           5.815    -3.459    -8.973  H    
     48 H           4.402    -5.270    -9.766  H    
     49 H           3.168    -6.640    -8.194  H    
     50 H           1.541    -7.038    -4.689  H    
     51 H           1.951    -7.400    -6.364  H    
     52 H           0.309   -10.372    -4.688  H    
     53 H           0.420    -8.949    -5.698  H    
     54 H           1.473   -10.263    -7.531  H    
     55 H           0.947   -12.732    -5.790  H    
     56 H           1.671   -12.708    -7.408  H    
     57 H           3.641   -11.509    -6.591  H    
     58 H           3.928   -10.877    -4.225  H    
     59 H           2.330   -11.471    -3.815  H    
     60 H           3.016   -13.846    -4.706  H    
     61 H           4.627   -13.192    -5.059  H    
     62 H           3.695   -13.977    -6.340  H    
     63 H          -1.189   -11.454    -6.583  H    
     64 H          -0.521   -11.581    -8.221  H    
     65 H          -0.979   -10.000    -7.578  H    
     66 H           0.864    -6.328     1.571  H    
     67 H           0.521    -5.912    -0.117  H    
     68 H          -0.810    -6.276     0.970  H    
@<TRIPOS>BOND
     1    1    2 1
     2    2    3 1
     3    3    8 ar
     4    3    4 ar
     5    4    5 ar
     6    5    6 ar
     7    6    7 ar
     8    7    8 ar
     9    7   34 1
    10    8    9 1
    11    9   10 1
    12   10   11 2
    13   10   12 1
    14   12   13 1
    15   13   14 1
    16   14   22 1
    17   14   15 2
    18   15   16 1
    19   16   21 ar
    20   16   17 ar
    21   17   18 ar
    22   18   19 ar
    23   19   20 ar
    24   20   21 ar
    25   21   22 1
    26   22   23 1
    27   23   24 1
    28   24   25 2
    29   24   26 1
    30   26   31 1
    31   26   27 1
    32   27   28 1
    33   28   29 1
    34   28   33 1
    35   29   30 1
    36   30   31 1
    37   30   32 1
    38    1   35 1
    39    1   36 1
    40    1   37 1
    41    2   38 1
    42    2   39 1
    43    4   40 1
    44    5   41 1
    45    6   42 1
    46    9   43 1
    47   12   44 1
    48   12   45 1
    49   17   46 1
    50   18   47 1
    51   19   48 1
    52   20   49 1
    53   23   50 1
    54   23   51 1
    55   27   52 1
    56   27   53 1
    57   28   54 1
    58   29   55 1
    59   29   56 1
    60   30   57 1
    61   31   58 1
    62   31   59 1
    63   32   60 1
    64   32   61 1
    65   32   62 1
    66   33   63 1
    67   33   64 1
    68   33   65 1
    69   34   66 1
    70   34   67 1
    71   34   68 1
@<TRIPOS>MOLECULE
ZINC01352113
 65 68 0 0 0
SMALL
NO_CHARGES


@<TRIPOS>ATOM
      1 C          -0.761    -7.868    -0.297  C    
      2 C           0.388    -8.306    -1.118  C    
      3 C           0.290    -8.437    -2.523  C    
      4 C           1.406    -8.828    -3.286  C    
      5 C           2.638    -9.100    -2.658  C    
      6 C           2.739    -8.980    -1.258  C    
      7 C           1.625    -8.590    -0.495  C    
      8 S           4.044    -9.513    -3.600  S    
      9 O           3.633   -10.146    -5.001  O    
     10 O           4.921   -10.587    -2.815  O    
     11 C           5.024    -8.011    -3.840  C    
     12 N           6.155    -8.197    -4.703  N    
     13 C           6.538    -7.599    -5.853  C    
     14 N           7.698    -8.197    -6.160  N    
     15 N           7.946    -9.041    -5.260  N    
     16 N           7.058    -9.036    -4.418  N    
     17 C           5.979    -6.526    -6.734  C    
     18 C           4.491    -6.759    -7.157  C    
     19 C           4.162    -8.146    -7.812  C    
     20 C           2.627    -8.336    -7.954  C    
     21 C           4.856    -8.359    -9.187  C    
     22 C           5.704    -4.709    -4.954  C    
     23 C           6.302    -3.368    -4.454  C    
     24 N           6.208    -2.364    -5.499  N    
     25 C           6.871    -2.749    -6.736  C    
     26 C           6.248    -4.058    -7.274  C    
     27 C           5.589    -1.184    -5.300  C    
     28 O           5.286    -0.837    -4.163  O    
     29 C           5.187    -0.296    -6.292  C    
     30 C           4.984     1.083    -6.154  C    
     31 C           4.547     1.567    -7.380  C    
     32 C           4.474     0.474    -8.235  C    
     33 O           4.858    -0.642    -7.564  O    
     34 N           6.339    -5.146    -6.235  N    
     35 H          -1.001    -8.636     0.443  H    
     36 H          -1.651    -7.681    -0.901  H    
     37 H          -0.504    -6.943     0.226  H    
     38 H          -0.590    -8.240    -3.001  H    
     39 H           1.314    -8.902    -4.302  H    
     40 H           3.627    -9.166    -0.784  H    
     41 H           1.720    -8.504     0.519  H    
     42 H           4.352    -7.242    -4.210  H    
     43 H           5.387    -7.686    -2.859  H    
     44 H           6.546    -6.623    -7.665  H    
     45 H           3.849    -6.621    -6.287  H    
     46 H           4.204    -5.984    -7.873  H    
     47 H           4.519    -8.936    -7.149  H    
     48 H           2.142    -8.268    -6.977  H    
     49 H           2.401    -9.321    -8.373  H    
     50 H           2.203    -7.572    -8.610  H    
     51 H           4.586    -7.562    -9.884  H    
     52 H           4.559    -9.317    -9.620  H    
     53 H           5.942    -8.375    -9.075  H    
     54 H           5.898    -5.443    -4.170  H    
     55 H           4.621    -4.599    -5.075  H    
     56 H           5.780    -3.099    -3.529  H    
     57 H           7.351    -3.519    -4.188  H    
     58 H           6.847    -1.989    -7.518  H    
     59 H           7.931    -2.923    -6.530  H    
     60 H           5.207    -3.869    -7.551  H    
     61 H           6.794    -4.350    -8.174  H    
     62 H           5.131     1.642    -5.309  H    
     63 H           4.316     2.540    -7.603  H    
     64 H           4.175     0.506    -9.213  H    
     65 H           7.338    -5.209    -6.021  H    
@<TRIPOS>BOND
     1    1    2 1
     2    2    7 ar
     3    2    3 ar
     4    3    4 ar
     5    4    5 ar
     6    5    6 ar
     7    5    8 1
     8    6    7 ar
     9    8    9 2
    10    8   10 2
    11    8   11 1
    12   11   12 1
    13   12   16 1
    14   12   13 1
    15   13   14 2
    16   13   17 1
    17   14   15 1
    18   15   16 2
    19   17   18 1
    20   17   34 1
    21   18   19 1
    22   19   20 1
    23   19   21 1
    24   22   23 1
    25   22   34 1
    26   23   24 1
    27   24   25 1
    28   24   27 1
    29   25   26 1
    30   26   34 1
    31   27   28 2
    32   27   29 1
    33   29   33 1
    34   29   30 2
    35   30   31 1
    36   31   32 2
    37   32   33 1
    38    1   35 1
    39    1   36 1
    40    1   37 1
    41    3   38 1
    42    4   39 1
    43    6   40 1
    44    7   41 1
    45   11   42 1
    46   11   43 1
    47   17   44 1
    48   18   45 1
    49   18   46 1
    50   19   47 1
    51   20   48 1
    52   20   49 1
    53   20   50 1
    54   21   51 1
    55   21   52 1
    56   21   53 1
    57   22   54 1
    58   22   55 1
    59   23   56 1
    60   23   57 1
    61   25   58 1
    62   25   59 1
    63   26   60 1
    64   26   61 1
    65   30   62 1
    66   31   63 1
    67   32   64 1
    68   34   65 1
@<TRIPOS>MOLECULE
ZINC01361664
 65 68 0 0 0
SMALL
NO_CHARGES


@<TRIPOS>ATOM
      1 C           1.991    -6.988    -6.194  C    
      2 C           0.935    -7.201    -5.288  C    
      3 C           1.085    -6.820    -3.944  C    
      4 C           2.293    -6.244    -3.506  C    
      5 C           3.380    -6.014    -4.398  C    
      6 C           3.191    -6.400    -5.754  C    
      7 N           4.557    -5.444    -3.874  N    
      8 C           4.712    -5.378    -2.534  C    
      9 O           5.677    -4.854    -1.995  O    
     10 C           3.714    -5.961    -1.647  C    
     11 O           2.386    -5.847    -2.193  O    
     12 C           5.575    -4.873    -4.760  C    
     13 C           5.195    -3.623    -5.432  C    
     14 O           4.146    -3.112    -5.041  O    
     15 N           5.936    -2.982    -6.366  N    
     16 C           5.550    -1.649    -6.815  C    
     17 C           5.965    -0.559    -5.785  C    
     18 C           5.655     0.878    -6.285  C    
     19 C           5.305     3.232    -5.566  C    
     20 C           5.729     4.333    -4.565  C    
     21 O           7.154     4.541    -4.610  O    
     22 C           7.915     3.350    -4.332  C    
     23 C           7.550     2.215    -5.320  C    
     24 C           7.172    -3.528    -6.925  C    
     25 C           7.031    -4.036    -8.395  C    
     26 C           5.981    -5.175    -8.557  C    
     27 C           5.883    -5.633   -10.041  C    
     28 C           7.163    -5.724   -10.731  C    
     29 C           8.307    -5.210   -10.245  C    
     30 C           8.402    -4.531    -8.960  C    
     31 N           6.070     1.963    -5.336  N    
     32 H           1.881    -7.266    -7.177  H    
     33 H           0.062    -7.632    -5.611  H    
     34 H           0.312    -6.965    -3.291  H    
     35 H           3.928    -6.267    -6.448  H    
     36 H           3.953    -7.015    -1.487  H    
     37 H           3.710    -5.466    -0.671  H    
     38 H           6.503    -4.653    -4.221  H    
     39 H           5.842    -5.633    -5.498  H    
     40 H           6.025    -1.395    -7.767  H    
     41 H           4.470    -1.599    -7.000  H    
     42 H           5.441    -0.720    -4.838  H    
     43 H           7.038    -0.655    -5.597  H    
     44 H           6.129     1.037    -7.260  H    
     45 H           4.573     0.922    -6.440  H    
     46 H           4.235     3.053    -5.434  H    
     47 H           5.470     3.596    -6.585  H    
     48 H           5.235     5.270    -4.829  H    
     49 H           5.419     4.062    -3.552  H    
     50 H           8.975     3.592    -4.433  H    
     51 H           7.742     3.023    -3.302  H    
     52 H           7.900     2.494    -6.318  H    
     53 H           8.090     1.319    -5.010  H    
     54 H           7.932    -2.742    -6.903  H    
     55 H           7.588    -4.338    -6.324  H    
     56 H           6.706    -3.200    -9.021  H    
     57 H           6.276    -6.032    -7.938  H    
     58 H           4.995    -4.834    -8.228  H    
     59 H           5.390    -6.613   -10.070  H    
     60 H           5.257    -4.926   -10.596  H    
     61 H           7.175    -6.142   -11.634  H    
     62 H           9.145    -5.344   -10.769  H    
     63 H           9.067    -3.667    -9.069  H    
     64 H           8.871    -5.231    -8.259  H    
     65 H           5.817     1.645    -4.398  H    
@<TRIPOS>BOND
     1    1    6 ar
     2    1    2 ar
     3    2    3 ar
     4    3    4 ar
     5    4   11 1
     6    4    5 ar
     7    5    6 ar
     8    5    7 1
     9    7    8 1
    10    7   12 1
    11    8    9 2
    12    8   10 1
    13   10   11 1
    14   12   13 1
    15   13   14 2
    16   13   15 1
    17   15   16 1
    18   15   24 1
    19   16   17 1
    20   17   18 1
    21   18   31 1
    22   19   20 1
    23   19   31 1
    24   20   21 1
    25   21   22 1
    26   22   23 1
    27   23   31 1
    28   24   25 1
    29   25   30 1
    30   25   26 1
    31   26   27 1
    32   27   28 1
    33   28   29 2
    34   29   30 1
    35    1   32 1
    36    2   33 1
    37    3   34 1
    38    6   35 1
    39   10   36 1
    40   10   37 1
    41   12   38 1
    42   12   39 1
    43   16   40 1
    44   16   41 1
    45   17   42 1
    46   17   43 1
    47   18   44 1
    48   18   45 1
    49   19   46 1
    50   19   47 1
    51   20   48 1
    52   20   49 1
    53   22   50 1
    54   22   51 1
    55   23   52 1
    56   23   53 1
    57   24   54 1
    58   24   55 1
    59   25   56 1
    60   26   57 1
    61   26   58 1
    62   27   59 1
    63   27   60 1
    64   28   61 1
    65   29   62 1
    66   30   63 1
    67   30   64 1
    68   31   65 1
@<TRIPOS>MOLECULE
ZINC01373911
 59 63 0 0 0
SMALL
NO_CHARGES


@<TRIPOS>ATOM
      1 C           2.213    -5.341    -5.002  C    
      2 C           2.478    -5.131    -3.648  C    
      3 C           1.493    -4.704    -2.733  C    
      4 C           1.811    -4.530    -1.373  C    
      5 C           3.123    -4.806    -0.913  C    
      6 C           4.112    -5.218    -1.826  C    
      7 C           3.796    -5.378    -3.188  C    
      8 N           4.744    -5.762    -4.095  N    
      9 C           4.459    -5.935    -5.384  C    
     10 O           5.389    -6.255    -6.112  O    
     11 C           3.171    -5.764    -5.862  C    
     12 C           2.844    -6.057    -7.263  C    
     13 C           2.913    -7.693    -9.132  C    
     14 C           3.733    -8.914    -9.610  C    
     15 O           3.761    -8.973   -11.036  O    
     16 C           2.047    -8.425    -6.896  C    
     17 C           2.609    -8.900    -5.613  C    
     18 N           3.906    -9.026    -5.313  N    
     19 N           3.966    -9.517    -4.152  N    
     20 N           2.844    -9.730    -3.708  N    
     21 N           1.960    -9.397    -4.548  N    
     22 C           0.551    -9.546    -4.339  C    
     23 C          -0.111    -8.204    -3.935  C    
     24 C          -1.650    -8.285    -3.792  C    
     25 C          -1.920    -7.316    -2.638  C    
     26 C          -0.667    -7.518    -1.778  C    
     27 O           0.423    -7.747    -2.678  O    
     28 O           3.478    -4.593     0.401  O    
     29 C           2.392    -4.501     1.347  C    
     30 C           1.242    -3.637     0.771  C    
     31 O           0.811    -4.161    -0.499  O    
     32 N           2.987    -7.507    -7.642  N    
     33 H           1.286    -5.197    -5.332  H    
     34 H           0.533    -4.524    -3.053  H    
     35 H           5.070    -5.393    -1.495  H    
     36 H           5.658    -5.899    -3.791  H    
     37 H           1.830    -5.726    -7.515  H    
     38 H           3.524    -5.439    -7.862  H    
     39 H           3.331    -6.832    -9.664  H    
     40 H           1.870    -7.797    -9.458  H    
     41 H           4.762    -8.828    -9.253  H    
     42 H           3.306    -9.847    -9.234  H    
     43 H           2.817    -9.042   -11.301  H    
     44 H           1.825    -9.328    -7.467  H    
     45 H           1.089    -7.927    -6.714  H    
     46 H           0.093    -9.930    -5.254  H    
     47 H           0.372   -10.285    -3.551  H    
     48 H           0.131    -7.447    -4.691  H    
     49 H          -2.165    -7.977    -4.708  H    
     50 H          -1.977    -9.293    -3.511  H    
     51 H          -1.970    -6.286    -3.005  H    
     52 H          -2.839    -7.565    -2.097  H    
     53 H          -0.471    -6.641    -1.157  H    
     54 H          -0.785    -8.391    -1.129  H    
     55 H           2.022    -5.508     1.572  H    
     56 H           2.769    -4.055     2.271  H    
     57 H           0.398    -3.639     1.460  H    
     58 H           1.585    -2.608     0.639  H    
     59 H           3.941    -7.775    -7.381  H    
@<TRIPOS>BOND
     1    1   11 2
     2    1    2 1
     3    2    7 ar
     4    2    3 ar
     5    3    4 ar
     6    4   31 1
     7    4    5 ar
     8    5    6 ar
     9    5   28 1
    10    6    7 ar
    11    7    8 1
    12    8    9 1
    13    9   10 2
    14    9   11 1
    15   11   12 1
    16   12   32 1
    17   13   14 1
    18   13   32 1
    19   14   15 1
    20   16   17 1
    21   16   32 1
    22   17   21 1
    23   17   18 2
    24   18   19 1
    25   19   20 2
    26   20   21 1
    27   21   22 1
    28   22   23 1
    29   23   27 1
    30   23   24 1
    31   24   25 1
    32   25   26 1
    33   26   27 1
    34   28   29 1
    35   29   30 1
    36   30   31 1
    37    1   33 1
    38    3   34 1
    39    6   35 1
    40    8   36 1
    41   12   37 1
    42   12   38 1
    43   13   39 1
    44   13   40 1
    45   14   41 1
    46   14   42 1
    47   15   43 1
    48   16   44 1
    49   16   45 1
    50   22   46 1
    51   22   47 1
    52   23   48 1
    53   24   49 1
    54   24   50 1
    55   25   51 1
    56   25   52 1
    57   26   53 1
    58   26   54 1
    59   29   55 1
    60   29   56 1
    61   30   57 1
    62   30   58 1
    63   32   59 1
@<TRIPOS>MOLECULE
ZINC01380876
 72 76 0 0 0
SMALL
NO_CHARGES


@<TRIPOS>ATOM
      1 C           7.498   -11.918    -3.468  C    
      2 C           8.185   -10.941    -4.465  C    
      3 C           8.906   -11.741    -5.589  C    
      4 C           7.154    -9.906    -5.015  C    
      5 C           7.756    -8.788    -5.910  C    
      6 N           6.764    -7.798    -6.253  N    
      7 C           6.077    -7.786    -7.517  C    
      8 C           4.879    -6.857    -7.205  C    
      9 C           4.136    -6.110    -8.192  C    
     10 C           2.984    -5.800    -7.607  C    
     11 C           3.014    -6.400    -6.281  C    
     12 O           3.778    -7.562    -6.607  O    
     13 C           4.015    -5.712    -5.285  C    
     14 C           5.361    -5.972    -6.036  C    
     15 C           6.360    -6.825    -5.445  C    
     16 O           6.837    -6.584    -4.344  O    
     17 C           3.792    -4.307    -4.949  C    
     18 O           2.781    -3.740    -5.345  O    
     19 N           4.679    -3.713    -4.153  N    
     20 C           4.772    -2.426    -3.689  C    
     21 C           4.013    -1.316    -4.146  C    
     22 C           4.219    -0.030    -3.611  C    
     23 C           5.193     0.174    -2.617  C    
     24 C           5.964    -0.910    -2.161  C    
     25 C           5.753    -2.195    -2.695  C    
     26 C           1.625    -6.766    -5.700  C    
     27 C           6.939    -7.322    -8.602  C    
     28 O           7.462    -6.217    -8.513  O    
     29 N           7.155    -8.110    -9.646  N    
     30 C           7.975    -7.827   -10.791  C    
     31 C           9.110    -8.885   -10.885  C    
     32 C           9.962    -8.698   -12.168  C    
     33 C           9.085    -8.691   -13.449  C    
     34 C           7.942    -7.646   -13.359  C    
     35 C           7.092    -7.834   -12.073  C    
     36 H           6.734   -12.514    -3.976  H    
     37 H           7.026   -11.366    -2.652  H    
     38 H           8.237   -12.597    -3.031  H    
     39 H           8.950   -10.393    -3.902  H    
     40 H           9.545   -12.515    -5.157  H    
     41 H           9.541   -11.082    -6.180  H    
     42 H           8.176   -12.218    -6.249  H    
     43 H           6.382   -10.432    -5.586  H    
     44 H           6.659    -9.430    -4.162  H    
     45 H           8.597    -8.309    -5.400  H    
     46 H           8.148    -9.242    -6.822  H    
     47 H           5.688    -8.787    -7.736  H    
     48 H           4.362    -6.000    -9.151  H    
     49 H           2.191    -5.418    -8.065  H    
     50 H           4.007    -6.274    -4.343  H    
     51 H           5.837    -5.051    -6.402  H    
     52 H           5.389    -4.299    -3.844  H    
     53 H           3.318    -1.418    -4.884  H    
     54 H           3.663     0.759    -3.949  H    
     55 H           5.345     1.109    -2.231  H    
     56 H           6.674    -0.764    -1.439  H    
     57 H           6.325    -2.970    -2.347  H    
     58 H           1.054    -5.860    -5.487  H    
     59 H           1.737    -7.336    -4.777  H    
     60 H           1.063    -7.373    -6.413  H    
     61 H           6.713    -8.972    -9.638  H    
     62 H           8.440    -6.838   -10.710  H    
     63 H           9.762    -8.796   -10.012  H    
     64 H           8.681    -9.893   -10.885  H    
     65 H          10.512    -7.755   -12.104  H    
     66 H          10.694    -9.506   -12.239  H    
     67 H           9.712    -8.465   -14.314  H    
     68 H           8.655    -9.687   -13.597  H    
     69 H           8.371    -6.639   -13.365  H    
     70 H           7.296    -7.742   -14.235  H    
     71 H           6.546    -8.780   -12.141  H    
     72 H           6.357    -7.025   -12.013  H    
@<TRIPOS>BOND
     1    1    2 1
     2    2    3 1
     3    2    4 1
     4    4    5 1
     5    5    6 1
     6    6   15 1
     7    6    7 1
     8    7    8 1
     9    7   27 1
    10    8   12 1
    11    8   14 1
    12    8    9 1
    13    9   10 2
    14   10   11 1
    15   11   12 1
    16   11   13 1
    17   11   26 1
    18   13   14 1
    19   13   17 1
    20   14   15 1
    21   15   16 2
    22   17   18 2
    23   17   19 1
    24   19   20 1
    25   20   25 ar
    26   20   21 ar
    27   21   22 ar
    28   22   23 ar
    29   23   24 ar
    30   24   25 ar
    31   27   28 2
    32   27   29 1
    33   29   30 1
    34   30   35 1
    35   30   31 1
    36   31   32 1
    37   32   33 1
    38   33   34 1
    39   34   35 1
    40    1   36 1
    41    1   37 1
    42    1   38 1
    43    2   39 1
    44    3   40 1
    45    3   41 1
    46    3   42 1
    47    4   43 1
    48    4   44 1
    49    5   45 1
    50    5   46 1
    51    7   47 1
    52    9   48 1
    53   10   49 1
    54   13   50 1
    55   14   51 1
    56   19   52 1
    57   21   53 1
    58   22   54 1
    59   23   55 1
    60   24   56 1
    61   25   57 1
    62   26   58 1
    63   26   59 1
    64   26   60 1
    65   29   61 1
    66   30   62 1
    67   31   63 1
    68   31   64 1
    69   32   65 1
    70   32   66 1
    71   33   67 1
    72   33   68 1
    73   34   69 1
    74   34   70 1
    75   35   71 1
    76   35   72 1
@<TRIPOS>MOLECULE
ZINC00252302
 42 43 0 0 0
SMALL
NO_CHARGES


@<TRIPOS>ATOM
      1 C           6.197    -4.876     2.254  C    
      2 C           5.377    -3.576     2.157  C    
      3 O           5.773    -2.688     3.221  O    
      4 C           5.028    -1.561     3.482  C    
      5 C           4.270    -0.842     2.525  C    
      6 C           3.565     0.320     2.891  C    
      7 C           3.615     0.809     4.219  C    
      8 C           4.391     0.104     5.164  C    
      9 C           5.086    -1.065     4.800  C    
     10 N           2.963     1.920     4.654  N    
     11 C           2.118     2.784     3.884  C    
     12 C           1.544     3.884     4.640  C    
     13 O           1.798     4.031     5.831  O    
     14 N           0.736     4.720     4.008  N    
     15 N           0.155     5.707     4.559  N    
     16 C          -0.641     6.571     4.039  C    
     17 C          -1.012     6.664     2.699  C    
     18 C          -0.057     6.492     1.665  C    
     19 C          -0.422     6.588     0.308  C    
     20 C          -1.757     6.876    -0.036  C    
     21 C          -2.713     7.084     0.972  C    
     22 C          -2.351     6.986     2.332  C    
     23 O          -3.343     7.196     3.244  O    
     24 Cl          0.740     6.386    -0.907  Cl   
     25 H           7.269    -4.658     2.200  H    
     26 H           5.934    -5.541     1.429  H    
     27 H           5.987    -5.384     3.198  H    
     28 H           5.575    -3.106     1.187  H    
     29 H           4.312    -3.815     2.228  H    
     30 H           4.230    -1.154     1.553  H    
     31 H           3.026     0.811     2.176  H    
     32 H           4.455     0.437     6.130  H    
     33 H           5.643    -1.556     5.506  H    
     34 H           3.084     2.148     5.590  H    
     35 H           2.700     3.199     3.056  H    
     36 H           1.299     2.188     3.476  H    
     37 H           0.562     4.547     3.070  H    
     38 H          -1.057     7.206     4.681  H    
     39 H           0.925     6.306     1.897  H    
     40 H          -2.033     6.947    -1.019  H    
     41 H          -3.681     7.296     0.713  H    
     42 H          -2.980     6.956     4.121  H    
@<TRIPOS>BOND
     1    1    2 1
     2    2    3 1
     3    3    4 1
     4    4    9 ar
     5    4    5 ar
     6    5    6 ar
     7    6    7 ar
     8    7    8 ar
     9    7   10 1
    10    8    9 ar
    11   10   11 1
    12   11   12 1
    13   12   13 2
    14   12   14 1
    15   14   15 1
    16   15   16 2
    17   16   17 1
    18   17   22 ar
    19   17   18 ar
    20   18   19 ar
    21   19   20 ar
    22   19   24 1
    23   20   21 ar
    24   21   22 ar
    25   22   23 1
    26    1   25 1
    27    1   26 1
    28    1   27 1
    29    2   28 1
    30    2   29 1
    31    5   30 1
    32    6   31 1
    33    8   32 1
    34    9   33 1
    35   10   34 1
    36   11   35 1
    37   11   36 1
    38   14   37 1
    39   16   38 1
    40   18   39 1
    41   20   40 1
    42   21   41 1
    43   23   42 1
@<TRIPOS>MOLECULE
ZINC00469717
 47 48 0 0 0
SMALL
NO_CHARGES


@<TRIPOS>ATOM
      1 C           6.660   -13.270    -0.671  C    
      2 C           5.624   -12.240    -1.179  C    
      3 C           5.167   -11.250    -0.071  C    
      4 C           4.175   -10.260    -0.465  C    
      5 O           3.779   -10.203    -1.623  O    
      6 N           3.783    -9.384     0.453  N    
      7 C           2.878    -8.356     0.349  C    
      8 C           1.705    -8.470    -0.440  C    
      9 C           0.775    -7.420    -0.507  C    
     10 C           1.003    -6.241     0.217  C    
     11 C           2.150    -6.120     1.020  C    
     12 C           3.088    -7.178     1.121  C    
     13 N           4.239    -7.089     1.867  N    
     14 C           4.529    -6.351     2.931  C    
     15 O           3.712    -5.621     3.477  O    
     16 C           5.849    -6.432     3.520  C    
     17 O           5.729    -6.896     4.880  O    
     18 C           6.924    -6.958     5.545  C    
     19 C           7.632    -8.177     5.588  C    
     20 C           8.853    -8.264     6.282  C    
     21 C           9.369    -7.133     6.940  C    
     22 C           8.659    -5.919     6.915  C    
     23 C           7.425    -5.831     6.238  C    
     24 O           6.751    -4.640     6.202  O    
     25 C           5.828    -4.478     7.292  C    
     26 H           7.555   -12.762    -0.305  H    
     27 H           6.947   -13.937    -1.486  H    
     28 H           6.236   -13.870     0.137  H    
     29 H           6.070   -11.679    -2.006  H    
     30 H           4.755   -12.783    -1.563  H    
     31 H           4.750   -11.831     0.757  H    
     32 H           6.049   -10.720     0.302  H    
     33 H           4.254    -9.437     1.300  H    
     34 H           1.501    -9.330    -0.953  H    
     35 H          -0.066    -7.514    -1.081  H    
     36 H           0.335    -5.469     0.157  H    
     37 H           2.301    -5.234     1.504  H    
     38 H           4.947    -7.694     1.594  H    
     39 H           6.489    -7.112     2.947  H    
     40 H           6.297    -5.434     3.486  H    
     41 H           7.262    -9.001     5.108  H    
     42 H           9.366    -9.148     6.306  H    
     43 H          10.259    -7.195     7.438  H    
     44 H           9.038    -5.100     7.393  H    
     45 H           5.067    -5.263     7.292  H    
     46 H           5.327    -3.517     7.171  H    
     47 H           6.348    -4.473     8.254  H    
@<TRIPOS>BOND
     1    1    2 1
     2    2    3 1
     3    3    4 1
     4    4    5 2
     5    4    6 1
     6    6    7 1
     7    7   12 ar
     8    7    8 ar
     9    8    9 ar
    10    9   10 ar
    11   10   11 ar
    12   11   12 ar
    13   12   13 1
    14   13   14 1
    15   14   15 2
    16   14   16 1
    17   16   17 1
    18   17   18 1
    19   18   23 ar
    20   18   19 ar
    21   19   20 ar
    22   20   21 ar
    23   21   22 ar
    24   22   23 ar
    25   23   24 1
    26   24   25 1
    27    1   26 1
    28    1   27 1
    29    1   28 1
    30    2   29 1
    31    2   30 1
    32    3   31 1
    33    3   32 1
    34    6   33 1
    35    8   34 1
    36    9   35 1
    37   10   36 1
    38   11   37 1
    39   13   38 1
    40   16   39 1
    41   16   40 1
    42   19   41 1
    43   20   42 1
    44   21   43 1
    45   22   44 1
    46   25   45 1
    47   25   46 1
    48   25   47 1
@<TRIPOS>MOLECULE
ZINC00620090
 52 52 0 0 0
SMALL
NO_CHARGES


@<TRIPOS>ATOM
      1 C           7.899   -10.935     1.643  C    
      2 C           7.105   -11.104     0.322  C    
      3 C           5.537   -11.113     0.432  C    
      4 C           4.955   -11.267    -1.013  C    
      5 C           5.061   -12.303     1.329  C    
      6 N           5.145    -9.842     0.995  N    
      7 C           3.932    -9.371     1.288  C    
      8 O           2.950   -10.055     1.045  O    
      9 C           3.764    -8.110     1.881  C    
     10 C           4.839    -7.430     2.514  C    
     11 C           4.673    -6.159     3.108  C    
     12 C           3.398    -5.557     3.115  C    
     13 C           2.302    -6.229     2.532  C    
     14 C           2.496    -7.475     1.900  C    
     15 O           1.058    -5.657     2.549  O    
     16 C           0.252    -6.073     3.664  C    
     17 C          -1.080    -5.298     3.643  C    
     18 O           3.193    -4.374     3.769  O    
     19 C           3.285    -3.213     2.927  C    
     20 C           2.880    -1.974     3.743  C    
     21 O           5.711    -5.543     3.762  O    
     22 C           6.758    -5.046     2.904  C    
     23 C           7.781    -4.273     3.760  C    
     24 H           7.607   -10.021     2.161  H    
     25 H           8.967   -10.878     1.422  H    
     26 H           7.737   -11.786     2.304  H    
     27 H           7.405   -10.289    -0.344  H    
     28 H           7.444   -12.034    -0.144  H    
     29 H           5.234   -10.410    -1.634  H    
     30 H           3.864   -11.333    -1.002  H    
     31 H           5.335   -12.174    -1.489  H    
     32 H           5.510   -13.242     0.998  H    
     33 H           3.977   -12.418     1.287  H    
     34 H           5.337   -12.137     2.370  H    
     35 H           5.882    -9.239     1.185  H    
     36 H           5.762    -7.863     2.577  H    
     37 H           1.685    -7.922     1.461  H    
     38 H           0.041    -7.143     3.605  H    
     39 H           0.755    -5.863     4.611  H    
     40 H          -0.892    -4.227     3.778  H    
     41 H          -1.723    -5.646     4.457  H    
     42 H          -1.596    -5.453     2.689  H    
     43 H           4.310    -3.079     2.579  H    
     44 H           2.622    -3.290     2.063  H    
     45 H           1.847    -2.072     4.086  H    
     46 H           2.961    -1.080     3.125  H    
     47 H           3.535    -1.865     4.612  H    
     48 H           7.271    -5.873     2.402  H    
     49 H           6.356    -4.367     2.141  H    
     50 H           7.293    -3.459     4.289  H    
     51 H           8.563    -3.855     3.124  H    
     52 H           8.237    -4.945     4.485  H    
@<TRIPOS>BOND
     1    1    2 1
     2    2    3 1
     3    3    4 1
     4    3    5 1
     5    3    6 1
     6    6    7 1
     7    7    8 2
     8    7    9 1
     9    9   14 ar
    10    9   10 ar
    11   10   11 ar
    12   11   12 ar
    13   11   21 1
    14   12   13 ar
    15   12   18 1
    16   13   14 ar
    17   13   15 1
    18   15   16 1
    19   16   17 1
    20   18   19 1
    21   19   20 1
    22   21   22 1
    23   22   23 1
    24    1   24 1
    25    1   25 1
    26    1   26 1
    27    2   27 1
    28    2   28 1
    29    4   29 1
    30    4   30 1
    31    4   31 1
    32    5   32 1
    33    5   33 1
    34    5   34 1
    35    6   35 1
    36   10   36 1
    37   14   37 1
    38   16   38 1
    39   16   39 1
    40   17   40 1
    41   17   41 1
    42   17   42 1
    43   19   43 1
    44   19   44 1
    45   20   45 1
    46   20   46 1
    47   20   47 1
    48   22   48 1
    49   22   49 1
    50   23   50 1
    51   23   51 1
    52   23   52 1
@<TRIPOS>MOLECULE
ZINC00628118
 59 61 0 0 0
SMALL
NO_CHARGES


@<TRIPOS>ATOM
      1 C           1.331     5.370    -3.484  C    
      2 N           0.895     4.658    -4.652  N    
      3 C           0.418     3.383    -4.537  C    
      4 C          -0.849     3.142    -3.962  C    
      5 C          -1.335     1.828    -3.842  C    
      6 C          -0.562     0.745    -4.299  C    
      7 C           0.708     0.960    -4.893  C    
      8 C           1.185     2.287    -4.992  C    
      9 N           1.550    -0.014    -5.359  N    
     10 C           1.320    -1.279    -5.691  C    
     11 O           0.211    -1.791    -5.645  O    
     12 C           2.412    -2.084    -6.210  C    
     13 N           2.187    -2.476    -7.578  N    
     14 C           2.100    -3.794    -7.933  C    
     15 C           3.223    -4.642    -7.815  C    
     16 C           3.147    -5.989    -8.218  C    
     17 C           1.945    -6.504    -8.742  C    
     18 C           0.817    -5.668    -8.855  C    
     19 C           0.895    -4.321    -8.453  C    
     20 Cl          1.854    -8.122    -9.232  Cl   
     21 S           2.137    -1.320    -8.818  S    
     22 O           0.625    -1.038    -9.224  O    
     23 O           2.728     0.068    -8.309  O    
     24 C           3.084    -1.814   -10.196  C    
     25 C           4.462    -1.527   -10.259  C    
     26 C           5.233    -1.972   -11.349  C    
     27 C           4.638    -2.726   -12.378  C    
     28 C           3.257    -3.002   -12.324  C    
     29 C           2.485    -2.554   -11.237  C    
     30 O           5.393    -3.161   -13.433  O    
     31 C           5.927    -4.483   -13.228  C    
     32 S           1.013     5.359    -6.187  S    
     33 O          -0.050     4.693    -7.169  O    
     34 O           0.537     6.877    -6.112  O    
     35 C           2.646     5.271    -6.943  C    
     36 H           0.492     5.523    -2.801  H    
     37 H           1.749     6.348    -3.731  H    
     38 H           2.105     4.798    -2.966  H    
     39 H          -1.424     3.921    -3.632  H    
     40 H          -2.250     1.659    -3.415  H    
     41 H          -0.933    -0.197    -4.170  H    
     42 H           2.109     2.463    -5.398  H    
     43 H           2.458     0.284    -5.520  H    
     44 H           3.362    -1.544    -6.158  H    
     45 H           2.513    -2.953    -5.553  H    
     46 H           4.106    -4.278    -7.450  H    
     47 H           3.971    -6.589    -8.132  H    
     48 H          -0.063    -6.034    -9.230  H    
     49 H           0.067    -3.726    -8.540  H    
     50 H           4.916    -1.003    -9.509  H    
     51 H           6.230    -1.758   -11.386  H    
     52 H           2.814    -3.543   -13.071  H    
     53 H           1.491    -2.782   -11.204  H    
     54 H           6.580    -4.516   -12.352  H    
     55 H           6.519    -4.751   -14.103  H    
     56 H           5.127    -5.222   -13.118  H    
     57 H           3.378     5.749    -6.290  H    
     58 H           2.629     5.785    -7.905  H    
     59 H           2.926     4.227    -7.097  H    
@<TRIPOS>BOND
     1    1    2 1
     2    2    3 1
     3    2   32 1
     4    3    8 ar
     5    3    4 ar
     6    4    5 ar
     7    5    6 ar
     8    6    7 ar
     9    7    8 ar
    10    7    9 1
    11    9   10 1
    12   10   11 2
    13   10   12 1
    14   12   13 1
    15   13   14 1
    16   13   21 1
    17   14   19 ar
    18   14   15 ar
    19   15   16 ar
    20   16   17 ar
    21   17   18 ar
    22   17   20 1
    23   18   19 ar
    24   21   22 2
    25   21   23 2
    26   21   24 1
    27   24   29 ar
    28   24   25 ar
    29   25   26 ar
    30   26   27 ar
    31   27   28 ar
    32   27   30 1
    33   28   29 ar
    34   30   31 1
    35   32   33 2
    36   32   34 2
    37   32   35 1
    38    1   36 1
    39    1   37 1
    40    1   38 1
    41    4   39 1
    42    5   40 1
    43    6   41 1
    44    8   42 1
    45    9   43 1
    46   12   44 1
    47   12   45 1
    48   15   46 1
    49   16   47 1
    50   18   48 1
    51   19   49 1
    52   25   50 1
    53   26   51 1
    54   28   52 1
    55   29   53 1
    56   31   54 1
    57   31   55 1
    58   31   56 1
    59   35   57 1
    60   35   58 1
    61   35   59 1
@<TRIPOS>MOLECULE
ZINC00707023
 57 58 0 0 0
SMALL
NO_CHARGES


@<TRIPOS>ATOM
      1 C           8.590   -10.706     1.630  C    
      2 C           7.377   -11.197     0.818  C    
      3 O           6.621   -10.070     0.361  O    
      4 C           5.466   -10.092    -0.357  C    
      5 O           4.936   -11.293    -0.687  O    
      6 C           4.819    -8.875    -0.719  C    
      7 C           3.999    -8.713    -1.875  C    
      8 C           3.446    -7.420    -2.014  C    
      9 S           4.017    -6.486    -0.700  S    
     10 C           4.962    -7.705     0.055  C    
     11 N           5.642    -7.601     1.237  N    
     12 C           5.945    -6.508     1.932  C    
     13 O           5.667    -5.378     1.545  O    
     14 C           6.677    -6.638     3.181  C    
     15 C           6.854    -5.838     5.536  C    
     16 C           6.118    -5.056     6.658  C    
     17 O           4.849    -5.683     6.962  O    
     18 C           3.957    -5.902     5.847  C    
     19 C           4.684    -6.671     4.710  C    
     20 C           3.290    -4.588     5.362  C    
     21 C           6.945    -4.987     7.961  C    
     22 C           2.524    -6.893    -2.946  C    
     23 O           1.597    -7.693    -3.527  O    
     24 O           2.457    -5.548    -3.125  O    
     25 C           1.515    -4.850    -3.948  C    
     26 C           1.815    -3.340    -3.920  C    
     27 C           3.810    -9.779    -2.893  C    
     28 N           5.970    -5.997     4.338  N    
     29 H           9.236   -10.094     0.998  H    
     30 H           9.160   -11.562     1.999  H    
     31 H           8.258   -10.104     2.478  H    
     32 H           7.723   -11.781    -0.037  H    
     33 H           6.750   -11.824     1.457  H    
     34 H           5.944    -8.436     1.624  H    
     35 H           6.882    -7.690     3.406  H    
     36 H           7.641    -6.148     3.021  H    
     37 H           7.756    -5.282     5.263  H    
     38 H           7.159    -6.821     5.909  H    
     39 H           5.945    -4.029     6.324  H    
     40 H           3.157    -6.546     6.220  H    
     41 H           4.886    -7.695     5.049  H    
     42 H           4.018    -6.736     3.847  H    
     43 H           2.859    -4.058     6.211  H    
     44 H           2.490    -4.813     4.654  H    
     45 H           4.011    -3.935     4.869  H    
     46 H           7.113    -5.992     8.359  H    
     47 H           6.411    -4.400     8.711  H    
     48 H           7.914    -4.511     7.779  H    
     49 H           1.589    -5.206    -4.979  H    
     50 H           0.503    -5.029    -3.576  H    
     51 H           1.742    -2.958    -2.899  H    
     52 H           1.092    -2.808    -4.544  H    
     53 H           2.820    -3.156    -4.304  H    
     54 H           4.773   -10.219    -3.146  H    
     55 H           3.383    -9.404    -3.819  H    
     56 H           3.151   -10.555    -2.502  H    
     57 H           5.731    -5.051     4.031  H    
@<TRIPOS>BOND
     1    1    2 1
     2    2    3 1
     3    3    4 1
     4    4    5 2
     5    4    6 1
     6    6   10 2
     7    6    7 1
     8    7    8 2
     9    7   27 1
    10    8    9 1
    11    8   22 1
    12    9   10 1
    13   10   11 1
    14   11   12 1
    15   12   13 2
    16   12   14 1
    17   14   28 1
    18   15   16 1
    19   15   28 1
    20   16   17 1
    21   16   21 1
    22   17   18 1
    23   18   19 1
    24   18   20 1
    25   19   28 1
    26   22   23 2
    27   22   24 1
    28   24   25 1
    29   25   26 1
    30    1   29 1
    31    1   30 1
    32    1   31 1
    33    2   32 1
    34    2   33 1
    35   11   34 1
    36   14   35 1
    37   14   36 1
    38   15   37 1
    39   15   38 1
    40   16   39 1
    41   18   40 1
    42   19   41 1
    43   19   42 1
    44   20   43 1
    45   20   44 1
    46   20   45 1
    47   21   46 1
    48   21   47 1
    49   21   48 1
    50   25   49 1
    51   25   50 1
    52   26   51 1
    53   26   52 1
    54   26   53 1
    55   27   54 1
    56   27   55 1
    57   27   56 1
    58   28   57 1
@<TRIPOS>MOLECULE
ZINC00710643
 53 55 0 0 0
SMALL
NO_CHARGES


@<TRIPOS>ATOM
      1 C           1.095    -0.119    -8.710  C    
      2 C           0.761     1.314    -8.260  C    
      3 O           1.658     1.716    -7.222  O    
      4 C           1.684     2.919    -6.589  C    
      5 O           0.785     3.870    -6.936  O    
      6 C           2.642     3.168    -5.572  C    
      7 C           3.976     2.663    -5.591  C    
      8 C           4.746     3.001    -4.454  C    
      9 S           3.743     3.984    -3.465  S    
     10 C           2.338     3.960    -4.448  C    
     11 N           1.125     4.531    -4.182  N    
     12 C           0.755     5.337    -3.190  C    
     13 O           1.583     5.691    -2.358  O    
     14 C          -0.572     5.787    -3.078  C    
     15 C          -1.634     5.053    -3.671  C    
     16 C          -2.974     5.461    -3.548  C    
     17 C          -3.291     6.615    -2.816  C    
     18 C          -2.267     7.358    -2.214  C    
     19 C          -0.917     6.968    -2.352  C    
     20 O           0.026     7.753    -1.743  O    
     21 C           0.479     8.849    -2.564  C    
     22 C           6.033     2.641    -4.072  C    
     23 O           6.616     3.347    -3.261  O    
     24 N           6.524     1.460    -4.430  N    
     25 C           7.724     0.869    -4.129  C    
     26 C           8.908     1.581    -3.818  C    
     27 C          10.109     0.901    -3.531  C    
     28 C          10.148    -0.502    -3.563  C    
     29 C           8.991    -1.225    -3.895  C    
     30 C           7.788    -0.545    -4.184  C    
     31 F           6.727    -1.257    -4.479  F    
     32 C           4.540     1.945    -6.767  C    
     33 H           2.119    -0.166    -9.085  H    
     34 H           0.412    -0.427    -9.507  H    
     35 H           0.991    -0.810    -7.871  H    
     36 H           0.856     1.993    -9.112  H    
     37 H          -0.268     1.349    -7.892  H    
     38 H           0.427     4.319    -4.819  H    
     39 H          -1.452     4.192    -4.192  H    
     40 H          -3.719     4.913    -3.983  H    
     41 H          -4.265     6.908    -2.720  H    
     42 H          -2.506     8.198    -1.681  H    
     43 H           0.934     8.492    -3.492  H    
     44 H           1.233     9.399    -2.004  H    
     45 H          -0.336     9.535    -2.795  H    
     46 H           5.908     0.897    -4.923  H    
     47 H           8.920     2.601    -3.820  H    
     48 H          10.958     1.428    -3.308  H    
     49 H          11.019    -0.997    -3.355  H    
     50 H           9.027    -2.246    -3.925  H    
     51 H           4.199     0.911    -6.764  H    
     52 H           5.628     1.959    -6.783  H    
     53 H           4.214     2.424    -7.690  H    
@<TRIPOS>BOND
     1    1    2 1
     2    2    3 1
     3    3    4 1
     4    4    5 2
     5    4    6 1
     6    6   10 2
     7    6    7 1
     8    7    8 2
     9    7   32 1
    10    8    9 1
    11    8   22 1
    12    9   10 1
    13   10   11 1
    14   11   12 1
    15   12   13 2
    16   12   14 1
    17   14   19 ar
    18   14   15 ar
    19   15   16 ar
    20   16   17 ar
    21   17   18 ar
    22   18   19 ar
    23   19   20 1
    24   20   21 1
    25   22   23 2
    26   22   24 1
    27   24   25 1
    28   25   30 ar
    29   25   26 ar
    30   26   27 ar
    31   27   28 ar
    32   28   29 ar
    33   29   30 ar
    34   30   31 1
    35    1   33 1
    36    1   34 1
    37    1   35 1
    38    2   36 1
    39    2   37 1
    40   11   38 1
    41   15   39 1
    42   16   40 1
    43   17   41 1
    44   18   42 1
    45   21   43 1
    46   21   44 1
    47   21   45 1
    48   24   46 1
    49   26   47 1
    50   27   48 1
    51   28   49 1
    52   29   50 1
    53   32   51 1
    54   32   52 1
    55   32   53 1
@<TRIPOS>MOLECULE
ZINC00742226
 51 53 0 0 0
SMALL
NO_CHARGES


@<TRIPOS>ATOM
      1 C           3.438   -11.700    -0.776  C    
      2 O           3.589   -10.343    -1.230  O    
      3 C           4.185    -9.525    -0.305  C    
      4 C           5.579    -9.319    -0.347  C    
      5 C           6.202    -8.470     0.581  C    
      6 C           5.440    -7.798     1.564  C    
      7 C           4.041    -8.006     1.606  C    
      8 C           3.407    -8.829     0.652  C    
      9 O           2.044    -9.002     0.700  O    
     10 C           1.325    -8.041    -0.097  C    
     11 C           6.063    -6.950     2.471  C    
     12 O           6.806    -7.533     3.257  O    
     13 N           5.895    -5.608     2.520  N    
     14 C           6.537    -4.807     3.557  C    
     15 C           5.532    -4.329     4.643  C    
     16 C           4.833    -5.469     5.409  C    
     17 C           4.468    -4.819     6.753  C    
     18 C           5.306    -3.525     6.778  C    
     19 O           6.206    -3.582     5.665  O    
     20 C           5.100    -4.887     1.525  C    
     21 C           5.657    -4.993     0.185  C    
     22 O           6.795    -4.575     0.006  O    
     23 N           4.952    -5.573    -0.776  N    
     24 C           5.358    -5.835    -2.040  C    
     25 N           6.543    -5.555    -2.630  N    
     26 C           6.664    -5.963    -3.922  C    
     27 C           5.546    -6.621    -4.439  C    
     28 S           4.375    -6.660    -3.186  S    
     29 H           4.406   -12.152    -0.538  H    
     30 H           2.982   -12.281    -1.582  H    
     31 H           2.783   -11.759     0.097  H    
     32 H           6.141    -9.795    -1.055  H    
     33 H           7.214    -8.330     0.522  H    
     34 H           3.472    -7.545     2.322  H    
     35 H           1.490    -7.023     0.270  H    
     36 H           0.261    -8.260    -0.018  H    
     37 H           1.609    -8.098    -1.150  H    
     38 H           7.355    -5.331     4.062  H    
     39 H           7.005    -3.926     3.099  H    
     40 H           4.774    -3.683     4.179  H    
     41 H           3.951    -5.834     4.875  H    
     42 H           5.523    -6.303     5.579  H    
     43 H           3.399    -4.586     6.796  H    
     44 H           4.727    -5.478     7.586  H    
     45 H           4.659    -2.646     6.680  H    
     46 H           5.878    -3.438     7.705  H    
     47 H           4.071    -5.254     1.556  H    
     48 H           5.034    -3.819     1.746  H    
     49 H           4.059    -5.867    -0.542  H    
     50 H           7.512    -5.801    -4.467  H    
     51 H           5.431    -7.004    -5.379  H    
@<TRIPOS>BOND
     1    1    2 1
     2    2    3 1
     3    3    8 ar
     4    3    4 ar
     5    4    5 ar
     6    5    6 ar
     7    6    7 ar
     8    6   11 1
     9    7    8 ar
    10    8    9 1
    11    9   10 1
    12   11   12 2
    13   11   13 1
    14   13   14 1
    15   13   20 1
    16   14   15 1
    17   15   19 1
    18   15   16 1
    19   16   17 1
    20   17   18 1
    21   18   19 1
    22   20   21 1
    23   21   22 2
    24   21   23 1
    25   23   24 1
    26   24   28 1
    27   24   25 2
    28   25   26 1
    29   26   27 2
    30   27   28 1
    31    1   29 1
    32    1   30 1
    33    1   31 1
    34    4   32 1
    35    5   33 1
    36    7   34 1
    37   10   35 1
    38   10   36 1
    39   10   37 1
    40   14   38 1
    41   14   39 1
    42   15   40 1
    43   16   41 1
    44   16   42 1
    45   17   43 1
    46   17   44 1
    47   18   45 1
    48   18   46 1
    49   20   47 1
    50   20   48 1
    51   23   49 1
    52   26   50 1
    53   27   51 1
@<TRIPOS>MOLECULE
ZINC00814792
 54 56 0 0 0
SMALL
NO_CHARGES


@<TRIPOS>ATOM
      1 C          -3.134     9.161    -3.530  C    
      2 C          -1.770     8.784    -3.983  C    
      3 C          -0.845     7.966    -3.262  C    
      4 C           0.373     7.796    -3.938  C    
      5 N           1.402     7.066    -3.454  N    
      6 C           1.264     6.459    -2.254  C    
      7 N           0.103     6.567    -1.529  N    
      8 C          -0.927     7.303    -2.018  C    
      9 O          -1.960     7.377    -1.366  O    
     10 C           0.022     5.878    -0.245  C    
     11 C          -0.828     4.697    -0.236  C    
     12 O          -1.319     4.276    -1.276  O    
     13 N          -1.019     4.072     0.917  N    
     14 C          -1.802     2.892     1.130  C    
     15 C          -3.330     3.150     1.031  C    
     16 C          -4.137     1.921     1.266  C    
     17 C          -4.863     1.313     0.217  C    
     18 C          -5.618     0.150     0.446  C    
     19 C          -5.659    -0.428     1.730  C    
     20 C          -4.975     0.191     2.798  C    
     21 C          -4.203     1.347     2.556  C    
     22 O          -5.025    -0.364     4.049  O    
     23 C          -5.901     0.335     4.948  C    
     24 O          -6.400    -1.563     1.940  O    
     25 C          -5.644    -2.770     1.748  C    
     26 S           0.314     8.622    -5.434  S    
     27 C          -1.281     9.235    -5.238  C    
     28 C          -1.879    10.042    -6.234  C    
     29 O          -3.142    10.513    -6.108  O    
     30 O          -1.171    10.350    -7.358  O    
     31 C          -1.612    11.164    -8.453  C    
     32 H          -3.223    10.248    -3.492  H    
     33 H          -3.400     8.791    -2.547  H    
     34 H          -3.871     8.768    -4.237  H    
     35 H           2.054     5.904    -1.915  H    
     36 H           1.010     5.559     0.103  H    
     37 H          -0.342     6.584     0.508  H    
     38 H          -0.559     4.435     1.692  H    
     39 H          -1.502     2.118     0.417  H    
     40 H          -1.566     2.535     2.135  H    
     41 H          -3.617     3.910     1.765  H    
     42 H          -3.551     3.562     0.042  H    
     43 H          -4.833     1.700    -0.731  H    
     44 H          -6.126    -0.287    -0.330  H    
     45 H          -3.699     1.780     3.335  H    
     46 H          -5.519     1.339     5.165  H    
     47 H          -5.950    -0.228     5.883  H    
     48 H          -6.917     0.419     4.542  H    
     49 H          -5.256    -2.838     0.727  H    
     50 H          -6.309    -3.619     1.922  H    
     51 H          -4.812    -2.838     2.459  H    
     52 H          -2.506    10.737    -8.910  H    
     53 H          -0.819    11.214    -9.201  H    
     54 H          -1.832    12.175    -8.099  H    
@<TRIPOS>BOND
     1    1    2 1
     2    2   27 2
     3    2    3 1
     4    3    8 1
     5    3    4 2
     6    4    5 1
     7    4   26 1
     8    5    6 2
     9    6    7 1
    10    7    8 1
    11    7   10 1
    12    8    9 2
    13   10   11 1
    14   11   12 2
    15   11   13 1
    16   13   14 1
    17   14   15 1
    18   15   16 1
    19   16   21 ar
    20   16   17 ar
    21   17   18 ar
    22   18   19 ar
    23   19   20 ar
    24   19   24 1
    25   20   21 ar
    26   20   22 1
    27   22   23 1
    28   24   25 1
    29   26   27 1
    30   27   28 1
    31   28   29 2
    32   28   30 1
    33   30   31 1
    34    1   32 1
    35    1   33 1
    36    1   34 1
    37    6   35 1
    38   10   36 1
    39   10   37 1
    40   13   38 1
    41   14   39 1
    42   14   40 1
    43   15   41 1
    44   15   42 1
    45   17   43 1
    46   18   44 1
    47   21   45 1
    48   23   46 1
    49   23   47 1
    50   23   48 1
    51   25   49 1
    52   25   50 1
    53   25   51 1
    54   31   52 1
    55   31   53 1
    56   31   54 1
@<TRIPOS>MOLECULE
ZINC00856871
 69 72 0 0 0
SMALL
NO_CHARGES


@<TRIPOS>ATOM
      1 C          -6.158     4.308     2.225  C    
      2 O          -5.027     5.132     1.898  O    
      3 C          -4.205     4.604     0.937  C    
      4 C          -4.339     5.042    -0.395  C    
      5 C          -3.471     4.562    -1.394  C    
      6 C          -2.452     3.630    -1.089  C    
      7 C          -2.315     3.209     0.261  C    
      8 C          -3.169     3.706     1.270  C    
      9 O          -3.059     3.249     2.559  O    
     10 C          -2.298     4.092     3.448  C    
     11 C          -0.782     3.808     3.417  C    
     12 C          -0.257     4.273     4.791  C    
     13 C          -1.481     4.321     5.734  C    
     14 C          -2.678     3.801     4.914  C    
     15 N          -1.665     3.232    -2.140  N    
     16 C          -0.888     2.164    -2.292  C    
     17 O          -0.798     1.318    -1.414  O    
     18 C          -0.195     1.963    -3.568  C    
     19 C           0.867     3.076    -3.810  C    
     20 C           1.596     2.877    -5.162  C    
     21 C           2.199     1.457    -5.273  C    
     22 C           0.473     0.558    -3.733  C    
     23 C           1.758    -0.986    -5.254  C    
     24 C           0.698    -2.109    -5.444  C    
     25 C           1.321    -3.468    -5.862  C    
     26 C           0.287    -4.527    -6.025  C    
     27 C          -0.104    -4.975    -7.311  C    
     28 C          -1.100    -5.958    -7.456  C    
     29 C          -1.717    -6.507    -6.316  C    
     30 C          -1.333    -6.082    -5.032  C    
     31 C          -0.338    -5.096    -4.887  C    
     32 N           1.176     0.385    -5.048  N    
     33 H          -6.769     4.093     1.347  H    
     34 H          -6.778     4.851     2.945  H    
     35 H          -5.844     3.370     2.688  H    
     36 H          -5.072     5.718    -0.644  H    
     37 H          -3.596     4.890    -2.354  H    
     38 H          -1.579     2.551     0.531  H    
     39 H          -2.481     5.157     3.248  H    
     40 H          -0.605     2.734     3.290  H    
     41 H          -0.297     4.346     2.598  H    
     42 H           0.507     3.587     5.165  H    
     43 H           0.184     5.273     4.701  H    
     44 H          -1.325     3.712     6.627  H    
     45 H          -1.672     5.355     6.042  H    
     46 H          -3.604     4.310     5.193  H    
     47 H          -2.807     2.723     5.070  H    
     48 H          -1.719     3.805    -2.923  H    
     49 H          -0.949     2.040    -4.361  H    
     50 H           0.390     4.061    -3.818  H    
     51 H           1.602     3.064    -3.002  H    
     52 H           0.888     3.034    -5.983  H    
     53 H           2.394     3.620    -5.258  H    
     54 H           2.624     1.360    -6.276  H    
     55 H           3.014     1.356    -4.550  H    
     56 H           1.182     0.388    -2.915  H    
     57 H          -0.322    -0.188    -3.648  H    
     58 H           2.412    -1.247    -4.416  H    
     59 H           2.374    -0.981    -6.159  H    
     60 H           0.146    -2.246    -4.512  H    
     61 H          -0.007    -1.793    -6.216  H    
     62 H           1.875    -3.330    -6.796  H    
     63 H           2.044    -3.792    -5.106  H    
     64 H           0.330    -4.577    -8.152  H    
     65 H          -1.378    -6.270    -8.389  H    
     66 H          -2.445    -7.217    -6.422  H    
     67 H          -1.776    -6.485    -4.203  H    
     68 H          -0.069    -4.794    -3.945  H    
     69 H           0.467     0.507    -5.771  H    
@<TRIPOS>BOND
     1    1    2 1
     2    2    3 1
     3    3    8 ar
     4    3    4 ar
     5    4    5 ar
     6    5    6 ar
     7    6    7 ar
     8    6   15 1
     9    7    8 ar
    10    8    9 1
    11    9   10 1
    12   10   14 1
    13   10   11 1
    14   11   12 1
    15   12   13 1
    16   13   14 1
    17   15   16 1
    18   16   17 2
    19   16   18 1
    20   18   22 1
    21   18   19 1
    22   19   20 1
    23   20   21 1
    24   21   32 1
    25   22   32 1
    26   23   24 1
    27   23   32 1
    28   24   25 1
    29   25   26 1
    30   26   31 ar
    31   26   27 ar
    32   27   28 ar
    33   28   29 ar
    34   29   30 ar
    35   30   31 ar
    36    1   33 1
    37    1   34 1
    38    1   35 1
    39    4   36 1
    40    5   37 1
    41    7   38 1
    42   10   39 1
    43   11   40 1
    44   11   41 1
    45   12   42 1
    46   12   43 1
    47   13   44 1
    48   13   45 1
    49   14   46 1
    50   14   47 1
    51   15   48 1
    52   18   49 1
    53   19   50 1
    54   19   51 1
    55   20   52 1
    56   20   53 1
    57   21   54 1
    58   21   55 1
    59   22   56 1
    60   22   57 1
    61   23   58 1
    62   23   59 1
    63   24   60 1
    64   24   61 1
    65   25   62 1
    66   25   63 1
    67   27   64 1
    68   28   65 1
    69   29   66 1
    70   30   67 1
    71   31   68 1
    72   32   69 1
@<TRIPOS>MOLECULE
ZINC00875547
 70 73 0 0 0
SMALL
NO_CHARGES


@<TRIPOS>ATOM
      1 C           1.539   -12.135    -1.863  C    
      2 C           2.701   -11.237    -2.054  C    
      3 C           3.528   -11.330    -3.194  C    
      4 C           4.636   -10.471    -3.380  C    
      5 C           4.915    -9.492    -2.387  C    
      6 C           4.086    -9.386    -1.239  C    
      7 C           2.990   -10.258    -1.080  C    
      8 C           4.375    -8.391    -0.300  C    
      9 C           5.417    -7.535    -0.439  C    
     10 C           6.221    -7.686    -1.557  C    
     11 O           7.200    -6.980    -1.755  O    
     12 N           5.971    -8.615    -2.477  N    
     13 C           5.701    -6.450     0.526  C    
     14 N           4.841    -6.307     1.661  N    
     15 C           5.027    -7.168     2.782  C    
     16 C           6.124    -6.670     3.765  C    
     17 C           6.292    -7.597     5.000  C    
     18 C           7.843    -8.348     6.789  C    
     19 C           9.064    -7.955     7.658  C    
     20 O           8.800    -6.739     8.385  O    
     21 C           8.461    -5.625     7.539  C    
     22 C           7.228    -5.953     6.659  C    
     23 C           3.859    -5.418     1.614  C    
     24 S           3.469    -4.461     2.978  S    
     25 N           2.994    -5.491     0.598  N    
     26 C           2.318    -4.517    -0.070  C    
     27 C           2.531    -3.126     0.107  C    
     28 C           1.782    -2.181    -0.616  C    
     29 C           0.813    -2.608    -1.536  C    
     30 C           0.607    -3.979    -1.747  C    
     31 C           1.373    -4.933    -1.041  C    
     32 O           1.139    -6.264    -1.262  O    
     33 C           1.816    -6.779    -2.423  C    
     34 C           5.446   -10.645    -4.614  C    
     35 N           7.444    -7.222     5.886  N    
     36 H           1.658   -12.689    -0.932  H    
     37 H           1.434   -12.855    -2.680  H    
     38 H           0.621   -11.543    -1.813  H    
     39 H           3.316   -12.037    -3.904  H    
     40 H           2.388   -10.178    -0.255  H    
     41 H           3.768    -8.308     0.481  H    
     42 H           6.569    -8.675    -3.238  H    
     43 H           6.726    -6.580     0.880  H    
     44 H           5.717    -5.513    -0.043  H    
     45 H           4.091    -7.289     3.337  H    
     46 H           5.303    -8.171     2.443  H    
     47 H           7.086    -6.608     3.246  H    
     48 H           5.860    -5.666     4.105  H    
     49 H           5.360    -7.604     5.577  H    
     50 H           6.449    -8.610     4.611  H    
     51 H           8.116    -9.227     6.199  H    
     52 H           7.013    -8.620     7.448  H    
     53 H           9.270    -8.748     8.377  H    
     54 H           9.949    -7.838     7.028  H    
     55 H           8.234    -4.763     8.172  H    
     56 H           9.311    -5.360     6.908  H    
     57 H           6.349    -6.042     7.303  H    
     58 H           7.072    -5.112     5.984  H    
     59 H           2.865    -6.384     0.249  H    
     60 H           3.255    -2.777     0.735  H    
     61 H           1.948    -1.181    -0.480  H    
     62 H           0.265    -1.921    -2.057  H    
     63 H          -0.100    -4.283    -2.418  H    
     64 H           1.445    -6.312    -3.339  H    
     65 H           1.615    -7.849    -2.484  H    
     66 H           2.898    -6.635    -2.352  H    
     67 H           5.853   -11.661    -4.642  H    
     68 H           6.281    -9.947    -4.683  H    
     69 H           4.810   -10.498    -5.489  H    
     70 H           8.240    -7.051     5.270  H    
@<TRIPOS>BOND
     1    1    2 1
     2    2    7 ar
     3    2    3 ar
     4    3    4 ar
     5    4    5 ar
     6    4   34 1
     7    5   12 1
     8    5    6 ar
     9    6    7 ar
    10    6    8 1
    11    8    9 2
    12    9   10 1
    13    9   13 1
    14   10   11 2
    15   10   12 1
    16   13   14 1
    17   14   15 1
    18   14   23 1
    19   15   16 1
    20   16   17 1
    21   17   35 1
    22   18   19 1
    23   18   35 1
    24   19   20 1
    25   20   21 1
    26   21   22 1
    27   22   35 1
    28   23   24 2
    29   23   25 1
    30   25   26 1
    31   26   31 ar
    32   26   27 ar
    33   27   28 ar
    34   28   29 ar
    35   29   30 ar
    36   30   31 ar
    37   31   32 1
    38   32   33 1
    39    1   36 1
    40    1   37 1
    41    1   38 1
    42    3   39 1
    43    7   40 1
    44    8   41 1
    45   12   42 1
    46   13   43 1
    47   13   44 1
    48   15   45 1
    49   15   46 1
    50   16   47 1
    51   16   48 1
    52   17   49 1
    53   17   50 1
    54   18   51 1
    55   18   52 1
    56   19   53 1
    57   19   54 1
    58   21   55 1
    59   21   56 1
    60   22   57 1
    61   22   58 1
    62   25   59 1
    63   27   60 1
    64   28   61 1
    65   29   62 1
    66   30   63 1
    67   33   64 1
    68   33   65 1
    69   33   66 1
    70   34   67 1
    71   34   68 1
    72   34   69 1
    73   35   70 1
@<TRIPOS>MOLECULE
ZINC00885970
 70 74 0 0 0
SMALL
NO_CHARGES


@<TRIPOS>ATOM
      1 C          -3.586    -3.069     7.017  C    
      2 C          -3.785    -2.766     5.593  C    
      3 C          -4.993    -2.505     4.958  C    
      4 C          -4.710    -2.292     3.618  C    
      5 C          -3.335    -2.425     3.469  C    
      6 O          -2.786    -2.711     4.676  O    
      7 C          -2.601    -2.293     2.277  C    
      8 N          -1.272    -2.305     2.165  N    
      9 N          -1.018    -2.153     0.941  N    
     10 N          -2.062    -2.054     0.280  N    
     11 N          -3.075    -2.128     1.037  N    
     12 C          -2.102    -1.840    -1.109  C    
     13 C          -1.784    -0.484    -1.570  C    
     14 O          -1.679     0.335    -0.663  O    
     15 N          -1.622    -0.089    -2.869  N    
     16 C          -1.240     1.325    -3.126  C    
     17 C          -2.486     2.270    -3.130  C    
     18 C          -2.091     3.771    -3.203  C    
     19 C          -1.181     4.058    -4.427  C    
     20 C           0.070     3.142    -4.434  C    
     21 C          -0.319     1.640    -4.353  C    
     22 C          -1.811    -1.038    -3.991  C    
     23 C          -2.873    -0.575    -4.958  C    
     24 C          -4.211    -0.473    -4.490  C    
     25 C          -5.262    -0.070    -5.337  C    
     26 C          -5.000     0.245    -6.681  C    
     27 C          -3.684     0.147    -7.176  C    
     28 C          -2.642    -0.265    -6.326  C    
     29 F          -5.966     0.632    -7.466  F    
     30 C          -0.547    -1.580    -4.518  C    
     31 O          -0.562    -2.247    -5.546  O    
     32 N           0.530    -1.629    -3.742  N    
     33 C           1.786    -2.255    -4.042  C    
     34 C           2.743    -1.330    -4.820  C    
     35 C           4.165    -1.855    -4.513  C    
     36 C           4.034    -2.775    -3.275  C    
     37 C           2.589    -2.585    -2.769  C    
     38 H          -3.141    -4.060     7.118  H    
     39 H          -4.533    -3.054     7.562  H    
     40 H          -2.916    -2.331     7.458  H    
     41 H          -5.920    -2.475     5.388  H    
     42 H          -5.390    -2.074     2.889  H    
     43 H          -1.399    -2.549    -1.561  H    
     44 H          -3.106    -2.094    -1.468  H    
     45 H          -0.625     1.664    -2.286  H    
     46 H          -3.122     2.041    -3.987  H    
     47 H          -3.076     2.115    -2.221  H    
     48 H          -2.998     4.380    -3.274  H    
     49 H          -1.566     4.058    -2.286  H    
     50 H          -1.752     3.897    -5.347  H    
     51 H          -0.863     5.105    -4.403  H    
     52 H           0.644     3.316    -5.349  H    
     53 H           0.708     3.399    -3.584  H    
     54 H           0.600     1.058    -4.278  H    
     55 H          -0.815     1.374    -5.283  H    
     56 H          -2.267    -1.964    -3.633  H    
     57 H          -4.434    -0.695    -3.517  H    
     58 H          -6.218    -0.008    -4.969  H    
     59 H          -3.487     0.377    -8.155  H    
     60 H          -1.703    -0.326    -6.723  H    
     61 H           0.467    -1.187    -2.884  H    
     62 H           1.630    -3.191    -4.599  H    
     63 H           2.527    -1.341    -5.892  H    
     64 H           2.655    -0.305    -4.451  H    
     65 H           4.561    -2.419    -5.364  H    
     66 H           4.840    -1.020    -4.303  H    
     67 H           4.197    -3.818    -3.568  H    
     68 H           4.755    -2.515    -2.495  H    
     69 H           2.548    -1.753    -2.061  H    
     70 H           2.213    -3.490    -2.282  H    
@<TRIPOS>BOND
     1    1    2 1
     2    2    6 1
     3    2    3 2
     4    3    4 1
     5    4    5 2
     6    5    6 1
     7    5    7 1
     8    7   11 2
     9    7    8 1
    10    8    9 2
    11    9   10 1
    12   10   11 1
    13   10   12 1
    14   12   13 1
    15   13   14 2
    16   13   15 1
    17   15   16 1
    18   15   22 1
    19   16   21 1
    20   16   17 1
    21   17   18 1
    22   18   19 1
    23   19   20 1
    24   20   21 1
    25   22   23 1
    26   22   30 1
    27   23   28 ar
    28   23   24 ar
    29   24   25 ar
    30   25   26 ar
    31   26   27 ar
    32   26   29 1
    33   27   28 ar
    34   30   31 2
    35   30   32 1
    36   32   33 1
    37   33   37 1
    38   33   34 1
    39   34   35 1
    40   35   36 1
    41   36   37 1
    42    1   38 1
    43    1   39 1
    44    1   40 1
    45    3   41 1
    46    4   42 1
    47   12   43 1
    48   12   44 1
    49   16   45 1
    50   17   46 1
    51   17   47 1
    52   18   48 1
    53   18   49 1
    54   19   50 1
    55   19   51 1
    56   20   52 1
    57   20   53 1
    58   21   54 1
    59   21   55 1
    60   22   56 1
    61   24   57 1
    62   25   58 1
    63   27   59 1
    64   28   60 1
    65   32   61 1
    66   33   62 1
    67   34   63 1
    68   34   64 1
    69   35   65 1
    70   35   66 1
    71   36   67 1
    72   36   68 1
    73   37   69 1
    74   37   70 1
@<TRIPOS>MOLECULE
ZINC00887639
 55 58 0 0 0
SMALL
NO_CHARGES


@<TRIPOS>ATOM
      1 C           2.550     5.472    -0.175  C    
      2 C           2.807     4.100    -0.303  C    
      3 C           3.011     3.544    -1.573  C    
      4 C           2.949     4.347    -2.739  C    
      5 C           2.666     5.742    -2.622  C    
      6 C           2.484     6.280    -1.323  C    
      7 C           2.551     6.692    -3.772  C    
      8 F           1.345     7.349    -3.728  F    
      9 F           3.554     7.629    -3.692  F    
     10 F           2.625     6.152    -5.031  F    
     11 N           3.186     3.721    -3.948  N    
     12 C           4.555     3.779    -4.447  C    
     13 C           5.464     2.936    -3.691  C    
     14 O           5.249     1.730    -3.655  O    
     15 N           6.505     3.477    -3.072  N    
     16 C           7.496     2.798    -2.296  C    
     17 C           7.634     3.448    -0.897  C    
     18 C           6.367     3.373    -0.019  C    
     19 C           6.914     3.300     1.413  C    
     20 C           8.436     3.167     1.226  C    
     21 O           8.644     2.775    -0.136  O    
     22 C           2.190     3.094    -4.610  C    
     23 O           2.435     2.509    -5.660  O    
     24 C           0.806     3.021    -4.129  C    
     25 N          -0.116     2.408    -4.992  N    
     26 N          -0.652     1.278    -4.799  N    
     27 C          -1.470     1.075    -5.835  C    
     28 N          -1.359     2.158    -6.611  N    
     29 N          -0.528     2.916    -6.046  N    
     30 C          -2.274    -0.050    -6.066  C    
     31 C          -3.163    -0.247    -7.130  C    
     32 C          -3.827    -1.487    -7.118  C    
     33 C          -3.483    -2.314    -6.048  C    
     34 S          -2.332    -1.469    -5.095  S    
     35 H           2.412     5.882     0.752  H    
     36 H           2.858     3.510     0.530  H    
     37 H           3.210     2.545    -1.652  H    
     38 H           2.295     7.277    -1.198  H    
     39 H           4.633     3.469    -5.491  H    
     40 H           4.900     4.817    -4.432  H    
     41 H           6.621     4.435    -3.166  H    
     42 H           7.289     1.730    -2.182  H    
     43 H           8.448     2.899    -2.821  H    
     44 H           7.928     4.497    -1.028  H    
     45 H           5.736     4.253    -0.163  H    
     46 H           5.784     2.473    -0.242  H    
     47 H           6.671     4.202     1.981  H    
     48 H           6.513     2.428     1.940  H    
     49 H           8.935     4.121     1.415  H    
     50 H           8.858     2.413     1.895  H    
     51 H           0.814     2.486    -3.175  H    
     52 H           0.450     4.034    -3.927  H    
     53 H          -3.323     0.446    -7.862  H    
     54 H          -4.500    -1.765    -7.835  H    
     55 H          -3.842    -3.252    -5.864  H    
@<TRIPOS>BOND
     1    1    6 ar
     2    1    2 ar
     3    2    3 ar
     4    3    4 ar
     5    4    5 ar
     6    4   11 1
     7    5    6 ar
     8    5    7 1
     9    7    8 1
    10    7    9 1
    11    7   10 1
    12   11   12 1
    13   11   22 1
    14   12   13 1
    15   13   14 2
    16   13   15 1
    17   15   16 1
    18   16   17 1
    19   17   21 1
    20   17   18 1
    21   18   19 1
    22   19   20 1
    23   20   21 1
    24   22   23 2
    25   22   24 1
    26   24   25 1
    27   25   29 1
    28   25   26 1
    29   26   27 2
    30   27   28 1
    31   27   30 1
    32   28   29 2
    33   30   34 1
    34   30   31 2
    35   31   32 1
    36   32   33 2
    37   33   34 1
    38    1   35 1
    39    2   36 1
    40    3   37 1
    41    6   38 1
    42   12   39 1
    43   12   40 1
    44   15   41 1
    45   16   42 1
    46   16   43 1
    47   17   44 1
    48   18   45 1
    49   18   46 1
    50   19   47 1
    51   19   48 1
    52   20   49 1
    53   20   50 1
    54   24   51 1
    55   24   52 1
    56   31   53 1
    57   32   54 1
    58   33   55 1
@<TRIPOS>MOLECULE
ZINC00908016
 64 66 0 0 0
SMALL
NO_CHARGES


@<TRIPOS>ATOM
      1 C           4.040     4.801    13.908  C    
      2 C           5.439     3.729    12.179  C    
      3 C           4.099     5.783    11.624  C    
      4 C           4.987     6.357    10.481  C    
      5 N           4.251     7.208     9.575  N    
      6 C           3.932     6.868     8.220  C    
      7 C           3.305     8.098     7.740  C    
      8 C           3.271     8.970     8.758  C    
      9 C           3.846     8.437     9.833  C    
     10 O           4.014     9.039    10.886  O    
     11 O           2.769    10.200     8.754  O    
     12 C           2.857     8.330     6.458  C    
     13 O           2.469     9.440     6.117  O    
     14 C           2.623     7.312     5.550  C    
     15 C           3.696     6.678     4.882  C    
     16 C           3.456     5.574     4.041  C    
     17 C           2.144     5.099     3.842  C    
     18 C           1.068     5.744     4.488  C    
     19 C           1.304     6.847     5.331  C    
     20 S           1.866     3.690     2.858  S    
     21 O           0.376     3.663     2.292  O    
     22 O           2.752     3.776     1.541  O    
     23 N           2.197     2.258     3.696  N    
     24 C           3.441     1.590     3.450  C    
     25 C           1.104     1.551     4.302  C    
     26 C           3.060     5.651     8.131  C    
     27 C           1.764     5.633     8.702  C    
     28 C           0.937     4.502     8.578  C    
     29 C           1.389     3.361     7.888  C    
     30 C           2.675     3.370     7.308  C    
     31 C           3.507     4.497     7.445  C    
     32 O           0.540     2.300     7.727  O    
     33 C           0.846     1.169     8.565  C    
     34 N           4.857     5.017    12.672  N    
     35 H           3.153     4.193    13.698  H    
     36 H           3.716     5.760    14.320  H    
     37 H           4.629     4.302    14.683  H    
     38 H           5.959     3.204    12.988  H    
     39 H           6.182     3.910    11.396  H    
     40 H           4.662     3.067    11.781  H    
     41 H           3.595     6.632    12.098  H    
     42 H           3.322     5.147    11.188  H    
     43 H           5.821     6.918    10.910  H    
     44 H           5.416     5.526     9.918  H    
     45 H           4.871     6.724     7.672  H    
     46 H           1.986    10.162     8.166  H    
     47 H           4.658     6.997     5.023  H    
     48 H           4.250     5.112     3.592  H    
     49 H           0.112     5.409     4.364  H    
     50 H           0.510     7.284     5.807  H    
     51 H           3.368     0.995     2.532  H    
     52 H           3.704     0.931     4.278  H    
     53 H           4.257     2.313     3.340  H    
     54 H           0.378     2.244     4.728  H    
     55 H           1.449     0.907     5.110  H    
     56 H           0.601     0.935     3.554  H    
     57 H           1.404     6.450     9.198  H    
     58 H          -0.001     4.512     8.986  H    
     59 H           3.009     2.558     6.782  H    
     60 H           4.434     4.473     7.014  H    
     61 H           1.804     0.717     8.287  H    
     62 H           0.065     0.422     8.421  H    
     63 H           0.868     1.446     9.625  H    
     64 H           5.643     5.609    12.949  H    
@<TRIPOS>BOND
     1    1   34 1
     2    2   34 1
     3    3    4 1
     4    3   34 1
     5    4    5 1
     6    5    9 1
     7    5    6 1
     8    6    7 1
     9    6   26 1
    10    7    8 2
    11    7   12 1
    12    8    9 1
    13    8   11 1
    14    9   10 2
    15   12   13 2
    16   12   14 1
    17   14   19 ar
    18   14   15 ar
    19   15   16 ar
    20   16   17 ar
    21   17   18 ar
    22   17   20 1
    23   18   19 ar
    24   20   21 2
    25   20   22 2
    26   20   23 1
    27   23   24 1
    28   23   25 1
    29   26   31 ar
    30   26   27 ar
    31   27   28 ar
    32   28   29 ar
    33   29   30 ar
    34   29   32 1
    35   30   31 ar
    36   32   33 1
    37    1   35 1
    38    1   36 1
    39    1   37 1
    40    2   38 1
    41    2   39 1
    42    2   40 1
    43    3   41 1
    44    3   42 1
    45    4   43 1
    46    4   44 1
    47    6   45 1
    48   11   46 1
    49   15   47 1
    50   16   48 1
    51   18   49 1
    52   19   50 1
    53   24   51 1
    54   24   52 1
    55   24   53 1
    56   25   54 1
    57   25   55 1
    58   25   56 1
    59   27   57 1
    60   28   58 1
    61   30   59 1
    62   31   60 1
    63   33   61 1
    64   33   62 1
    65   33   63 1
    66   34   64 1
@<TRIPOS>MOLECULE
ZINC00918269
 63 66 0 0 0
SMALL
NO_CHARGES


@<TRIPOS>ATOM
      1 C           5.997   -16.825    -1.835  C    
      2 O           6.532   -16.765    -0.503  O    
      3 C           6.377   -15.547     0.099  C    
      4 C           5.328   -15.347     1.018  C    
      5 C           5.199   -14.116     1.687  C    
      6 C           6.122   -13.065     1.460  C    
      7 C           7.182   -13.283     0.545  C    
      8 C           7.315   -14.517    -0.116  C    
      9 C           5.979   -11.754     2.159  C    
     10 N           5.352   -10.763     1.318  N    
     11 C           3.931   -10.827     1.047  C    
     12 C           3.231    -9.583     1.391  C    
     13 C           2.732    -8.781     0.418  C    
     14 C           2.219    -7.512     0.701  C    
     15 C           1.743    -6.635    -0.299  C    
     16 C           1.294    -5.337     0.037  C    
     17 C           1.295    -4.935     1.389  C    
     18 C           1.753    -5.805     2.395  C    
     19 C           2.213    -7.091     2.057  C    
     20 N           2.659    -7.960     3.016  N    
     21 C           3.136    -9.164     2.707  C    
     22 O           3.487    -9.866     3.644  O    
     23 O           0.776    -4.475    -0.893  O    
     24 C           1.718    -3.981    -1.866  C    
     25 S           6.290    -9.689     0.389  S    
     26 O           7.843    -9.958     0.613  O    
     27 O           6.046   -10.064    -1.137  O    
     28 C           6.054    -8.008     0.838  C    
     29 C           6.103    -7.733     2.223  C    
     30 C           5.798    -6.453     2.718  C    
     31 C           5.436    -5.431     1.831  C    
     32 C           5.409    -5.679     0.449  C    
     33 C           5.737    -6.957    -0.069  C    
     34 C           5.755    -7.109    -1.474  C    
     35 O           6.846    -7.639    -2.075  O    
     36 O           4.753    -6.582    -2.222  O    
     37 C           4.668    -6.612    -3.650  C    
     38 H           4.914   -16.669    -1.835  H    
     39 H           6.199   -17.822    -2.237  H    
     40 H           6.472   -16.094    -2.495  H    
     41 H           4.658   -16.096     1.202  H    
     42 H           4.426   -13.996     2.348  H    
     43 H           7.877   -12.553     0.367  H    
     44 H           8.097   -14.663    -0.759  H    
     45 H           5.376   -11.875     3.064  H    
     46 H           6.956   -11.423     2.514  H    
     47 H           3.805   -11.093    -0.007  H    
     48 H           3.451   -11.635     1.607  H    
     49 H           2.792    -9.063    -0.534  H    
     50 H           1.720    -6.941    -1.274  H    
     51 H           0.947    -4.010     1.646  H    
     52 H           1.748    -5.501     3.371  H    
     53 H           2.619    -7.692     3.949  H    
     54 H           2.647    -3.616    -1.404  H    
     55 H           1.250    -3.150    -2.394  H    
     56 H           1.957    -4.756    -2.603  H    
     57 H           6.335    -8.471     2.891  H    
     58 H           5.820    -6.271     3.723  H    
     59 H           5.198    -4.505     2.192  H    
     60 H           5.165    -4.907    -0.177  H    
     61 H           5.520    -6.089    -4.085  H    
     62 H           3.749    -6.116    -3.959  H    
     63 H           4.651    -7.644    -4.006  H    
@<TRIPOS>BOND
     1    1    2 1
     2    2    3 1
     3    3    8 ar
     4    3    4 ar
     5    4    5 ar
     6    5    6 ar
     7    6    7 ar
     8    6    9 1
     9    7    8 ar
    10    9   10 1
    11   10   11 1
    12   10   25 1
    13   11   12 1
    14   12   21 1
    15   12   13 2
    16   13   14 1
    17   14   19 ar
    18   14   15 ar
    19   15   16 ar
    20   16   17 ar
    21   16   23 1
    22   17   18 ar
    23   18   19 ar
    24   19   20 1
    25   20   21 1
    26   21   22 2
    27   23   24 1
    28   25   26 2
    29   25   27 2
    30   25   28 1
    31   28   33 ar
    32   28   29 ar
    33   29   30 ar
    34   30   31 ar
    35   31   32 ar
    36   32   33 ar
    37   33   34 1
    38   34   35 2
    39   34   36 1
    40   36   37 1
    41    1   38 1
    42    1   39 1
    43    1   40 1
    44    4   41 1
    45    5   42 1
    46    7   43 1
    47    8   44 1
    48    9   45 1
    49    9   46 1
    50   11   47 1
    51   11   48 1
    52   13   49 1
    53   15   50 1
    54   17   51 1
    55   18   52 1
    56   20   53 1
    57   24   54 1
    58   24   55 1
    59   24   56 1
    60   29   57 1
    61   30   58 1
    62   31   59 1
    63   32   60 1
    64   37   61 1
    65   37   62 1
    66   37   63 1
@<TRIPOS>MOLECULE
ZINC00928024
 69 74 0 0 0
SMALL
NO_CHARGES


@<TRIPOS>ATOM
      1 C          -2.055    -0.094    -5.189  C    
      2 C          -1.851    -0.599    -3.749  C    
      3 O          -1.347    -1.955    -3.781  O    
      4 C          -0.902    -2.549    -2.621  C    
      5 C          -1.430    -2.306    -1.328  C    
      6 C          -0.928    -2.982    -0.202  C    
      7 C           0.099    -3.930    -0.353  C    
      8 C           0.614    -4.220    -1.640  C    
      9 C           0.116    -3.518    -2.762  C    
     10 C           1.599    -5.206    -1.731  C    
     11 C           2.134    -5.809    -0.639  C    
     12 C           1.578    -5.511     0.596  C    
     13 O           1.877    -6.107     1.619  O    
     14 N           0.610    -4.601     0.723  N    
     15 C           3.202    -6.819    -0.792  C    
     16 C           5.298    -5.562    -1.521  C    
     17 C           4.790    -4.182    -1.772  C    
     18 C           4.985    -3.146    -0.820  C    
     19 C           4.492    -1.843    -1.046  C    
     20 C           3.808    -1.574    -2.243  C    
     21 C           3.656    -2.558    -3.209  C    
     22 C           4.161    -3.855    -3.000  C    
     23 O           2.982    -2.116    -4.281  O    
     24 C           2.779    -0.726    -3.943  C    
     25 O           3.238    -0.412    -2.615  O    
     26 C           4.877    -6.074     0.954  C    
     27 C           6.304    -6.144     1.336  C    
     28 N           7.063    -5.082     1.624  N    
     29 N           8.224    -5.514     1.859  N    
     30 N           8.266    -6.733     1.751  N    
     31 N           7.132    -7.199     1.439  N    
     32 C           6.872    -8.601     1.276  C    
     33 C           6.128    -9.230     2.486  C    
     34 C           6.878    -9.131     3.833  C    
     35 C           6.332   -10.323     4.634  C    
     36 C           5.618   -11.183     3.572  C    
     37 O           5.956   -10.640     2.287  O    
     38 N           4.625    -6.427    -0.483  N    
     39 H          -1.098    -0.058    -5.717  H    
     40 H          -2.489     0.912    -5.170  H    
     41 H          -2.737    -0.759    -5.725  H    
     42 H          -1.145     0.060    -3.236  H    
     43 H          -2.813    -0.567    -3.232  H    
     44 H          -2.189    -1.638    -1.196  H    
     45 H          -1.318    -2.788     0.722  H    
     46 H           0.494    -3.711    -3.692  H    
     47 H           1.927    -5.452    -2.634  H    
     48 H           0.239    -4.425     1.601  H    
     49 H           2.954    -7.680    -0.165  H    
     50 H           3.187    -7.229    -1.805  H    
     51 H           5.272    -6.132    -2.457  H    
     52 H           6.362    -5.477    -1.285  H    
     53 H           5.504    -3.321     0.038  H    
     54 H           4.630    -1.109    -0.354  H    
     55 H           4.035    -4.552    -3.733  H    
     56 H           3.318    -0.102    -4.661  H    
     57 H           1.714    -0.492    -4.023  H    
     58 H           4.361    -6.772     1.610  H    
     59 H           4.479    -5.084     1.173  H    
     60 H           6.284    -8.759     0.373  H    
     61 H           7.814    -9.137     1.139  H    
     62 H           5.142    -8.765     2.583  H    
     63 H           7.958    -9.246     3.689  H    
     64 H           6.678    -8.178     4.335  H    
     65 H           7.143   -10.879     5.113  H    
     66 H           5.622    -9.993     5.402  H    
     67 H           5.940   -12.226     3.624  H    
     68 H           4.531   -11.145     3.711  H    
     69 H           5.125    -7.313    -0.587  H    
@<TRIPOS>BOND
     1    1    2 1
     2    2    3 1
     3    3    4 1
     4    4    9 ar
     5    4    5 ar
     6    5    6 ar
     7    6    7 ar
     8    7   14 1
     9    7    8 ar
    10    8    9 ar
    11    8   10 1
    12   10   11 2
    13   11   12 1
    14   11   15 1
    15   12   13 2
    16   12   14 1
    17   15   38 1
    18   16   17 1
    19   16   38 1
    20   17   22 ar
    21   17   18 ar
    22   18   19 ar
    23   19   20 ar
    24   20   25 1
    25   20   21 ar
    26   21   22 ar
    27   21   23 1
    28   23   24 1
    29   24   25 1
    30   26   27 1
    31   26   38 1
    32   27   31 1
    33   27   28 2
    34   28   29 1
    35   29   30 2
    36   30   31 1
    37   31   32 1
    38   32   33 1
    39   33   37 1
    40   33   34 1
    41   34   35 1
    42   35   36 1
    43   36   37 1
    44    1   39 1
    45    1   40 1
    46    1   41 1
    47    2   42 1
    48    2   43 1
    49    5   44 1
    50    6   45 1
    51    9   46 1
    52   10   47 1
    53   14   48 1
    54   15   49 1
    55   15   50 1
    56   16   51 1
    57   16   52 1
    58   18   53 1
    59   19   54 1
    60   22   55 1
    61   24   56 1
    62   24   57 1
    63   26   58 1
    64   26   59 1
    65   32   60 1
    66   32   61 1
    67   33   62 1
    68   34   63 1
    69   34   64 1
    70   35   65 1
    71   35   66 1
    72   36   67 1
    73   36   68 1
    74   38   69 1
@<TRIPOS>MOLECULE
ZINC00951831
 51 52 0 0 0
SMALL
NO_CHARGES


@<TRIPOS>ATOM
      1 C          -1.066    -1.147    -1.699  C    
      2 C           0.030    -0.064    -1.702  C    
      3 O          -0.483     1.103    -2.373  O    
      4 C           0.412     2.136    -2.471  C    
      5 C           0.646     2.979    -1.366  C    
      6 C           1.524     4.090    -1.451  C    
      7 C           2.116     4.354    -2.711  C    
      8 C           1.843     3.554    -3.839  C    
      9 C           1.019     2.418    -3.712  C    
     10 O           0.714     1.643    -4.799  O    
     11 C           1.741     0.711    -5.175  C    
     12 C           1.213    -0.168    -6.320  C    
     13 O           2.419     3.872    -5.037  O    
     14 C           1.598     4.712    -5.870  C    
     15 C           2.379     5.058    -7.148  C    
     16 C           1.774     4.900    -0.336  C    
     17 O           1.015     4.860     0.624  O    
     18 N           2.870     5.649    -0.264  N    
     19 C           3.262     6.441     0.780  C    
     20 C           2.411     7.498     1.171  C    
     21 C           2.769     8.357     2.221  C    
     22 C           3.989     8.168     2.894  C    
     23 C           4.843     7.125     2.512  C    
     24 C           4.513     6.242     1.445  C    
     25 C           5.402     5.213     1.101  C    
     26 O           5.333     4.619     0.033  O    
     27 N           6.365     4.793     1.895  N    
     28 H          -1.943    -0.780    -1.161  H    
     29 H          -0.696    -2.048    -1.202  H    
     30 H          -1.356    -1.399    -2.719  H    
     31 H           0.301     0.169    -0.666  H    
     32 H           0.911    -0.455    -2.210  H    
     33 H           0.174     2.759    -0.484  H    
     34 H           2.731     5.163    -2.839  H    
     35 H           2.635     1.235    -5.519  H    
     36 H           2.015     0.067    -4.339  H    
     37 H           0.332    -0.724    -5.991  H    
     38 H           1.984    -0.878    -6.629  H    
     39 H           0.941     0.452    -7.177  H    
     40 H           0.673     4.198    -6.144  H    
     41 H           1.349     5.647    -5.357  H    
     42 H           3.270     5.634    -6.891  H    
     43 H           1.757     5.659    -7.811  H    
     44 H           2.680     4.146    -7.668  H    
     45 H           3.519     5.536    -0.977  H    
     46 H           1.526     7.658     0.681  H    
     47 H           2.148     9.121     2.492  H    
     48 H           4.257     8.795     3.657  H    
     49 H           5.727     7.035     3.021  H    
     50 H           6.948     4.077     1.605  H    
     51 H           6.487     5.180     2.775  H    
@<TRIPOS>BOND
     1    1    2 1
     2    2    3 1
     3    3    4 1
     4    4    9 ar
     5    4    5 ar
     6    5    6 ar
     7    6    7 ar
     8    6   16 1
     9    7    8 ar
    10    8    9 ar
    11    8   13 1
    12    9   10 1
    13   10   11 1
    14   11   12 1
    15   13   14 1
    16   14   15 1
    17   16   17 2
    18   16   18 1
    19   18   19 1
    20   19   24 ar
    21   19   20 ar
    22   20   21 ar
    23   21   22 ar
    24   22   23 ar
    25   23   24 ar
    26   24   25 1
    27   25   26 2
    28   25   27 1
    29    1   28 1
    30    1   29 1
    31    1   30 1
    32    2   31 1
    33    2   32 1
    34    5   33 1
    35    7   34 1
    36   11   35 1
    37   11   36 1
    38   12   37 1
    39   12   38 1
    40   12   39 1
    41   14   40 1
    42   14   41 1
    43   15   42 1
    44   15   43 1
    45   15   44 1
    46   18   45 1
    47   20   46 1
    48   21   47 1
    49   22   48 1
    50   23   49 1
    51   27   50 1
    52   27   51 1
@<TRIPOS>MOLECULE
ZINC00962516
 59 61 0 0 0
SMALL
NO_CHARGES


@<TRIPOS>ATOM
      1 C           5.086   -10.805    -2.146  C    
      2 C           4.241    -9.495    -2.420  C    
      3 C           3.391    -9.832    -3.693  C    
      4 C           5.312    -8.390    -2.725  C    
      5 C           3.349    -9.137    -1.263  C    
      6 O           3.388    -9.943    -0.333  O    
      7 N           2.503    -8.081    -1.080  N    
      8 C           1.681    -7.986     0.137  C    
      9 C           2.434    -7.419     1.270  C    
     10 N           3.574    -7.911     1.781  N    
     11 C           3.961    -7.110     2.788  C    
     12 C           3.009    -6.097     2.881  C    
     13 O           2.071    -6.299     1.936  O    
     14 C           5.097    -7.286     3.551  C    
     15 O           5.850    -8.215     3.287  O    
     16 N           5.373    -6.436     4.531  N    
     17 C           6.530    -6.434     5.373  C    
     18 C           7.342    -5.136     5.145  C    
     19 C           7.895    -4.972     3.713  C    
     20 C           9.154    -4.112     3.909  C    
     21 C           9.365    -4.105     5.436  C    
     22 O           8.502    -5.110     5.982  O    
     23 C           2.317    -6.976    -2.014  C    
     24 C           2.935    -5.639    -1.506  C    
     25 C           2.941    -4.505    -2.554  C    
     26 C           4.087    -3.602    -2.083  C    
     27 C           4.859    -4.471    -1.068  C    
     28 O           4.314    -5.796    -1.149  O    
     29 H           4.433   -11.664    -1.961  H    
     30 H           5.726   -10.675    -1.270  H    
     31 H           5.729   -11.059    -2.993  H    
     32 H           4.038   -10.087    -4.535  H    
     33 H           2.759    -9.006    -4.015  H    
     34 H           2.733   -10.683    -3.503  H    
     35 H           5.882    -8.158    -1.824  H    
     36 H           4.881    -7.467    -3.102  H    
     37 H           6.015    -8.730    -3.490  H    
     38 H           0.796    -7.361    -0.011  H    
     39 H           1.290    -8.964     0.429  H    
     40 H           3.002    -5.318     3.548  H    
     41 H           4.739    -5.719     4.682  H    
     42 H           6.195    -6.458     6.411  H    
     43 H           7.177    -7.302     5.211  H    
     44 H           6.707    -4.275     5.393  H    
     45 H           8.174    -5.941     3.288  H    
     46 H           7.170    -4.486     3.056  H    
     47 H          10.011    -4.552     3.391  H    
     48 H           8.996    -3.095     3.535  H    
     49 H          10.406    -4.330     5.691  H    
     50 H           9.105    -3.133     5.860  H    
     51 H           2.733    -7.186    -2.992  H    
     52 H           1.247    -6.816    -2.196  H    
     53 H           2.374    -5.304    -0.624  H    
     54 H           3.166    -4.896    -3.552  H    
     55 H           1.983    -3.979    -2.578  H    
     56 H           4.726    -3.307    -2.920  H    
     57 H           3.701    -2.700    -1.601  H    
     58 H           5.925    -4.492    -1.300  H    
     59 H           4.731    -4.090    -0.051  H    
@<TRIPOS>BOND
     1    1    2 1
     2    2    3 1
     3    2    4 1
     4    2    5 1
     5    5    6 2
     6    5    7 1
     7    7    8 1
     8    7   23 1
     9    8    9 1
    10    9   13 1
    11    9   10 2
    12   10   11 1
    13   11   12 2
    14   11   14 1
    15   12   13 1
    16   14   15 2
    17   14   16 1
    18   16   17 1
    19   17   18 1
    20   18   22 1
    21   18   19 1
    22   19   20 1
    23   20   21 1
    24   21   22 1
    25   23   24 1
    26   24   28 1
    27   24   25 1
    28   25   26 1
    29   26   27 1
    30   27   28 1
    31    1   29 1
    32    1   30 1
    33    1   31 1
    34    3   32 1
    35    3   33 1
    36    3   34 1
    37    4   35 1
    38    4   36 1
    39    4   37 1
    40    8   38 1
    41    8   39 1
    42   12   40 1
    43   16   41 1
    44   17   42 1
    45   17   43 1
    46   18   44 1
    47   19   45 1
    48   19   46 1
    49   20   47 1
    50   20   48 1
    51   21   49 1
    52   21   50 1
    53   23   51 1
    54   23   52 1
    55   24   53 1
    56   25   54 1
    57   25   55 1
    58   26   56 1
    59   26   57 1
    60   27   58 1
    61   27   59 1
@<TRIPOS>MOLECULE
ZINC00966167
 53 56 0 0 0
SMALL
NO_CHARGES


@<TRIPOS>ATOM
      1 C           5.485    -1.282    -5.234  C    
      2 N           5.909    -0.494    -4.117  N    
      3 C           6.657     0.627    -4.212  C    
      4 C           6.882     1.135    -2.941  C    
      5 C           6.244     0.284    -2.055  C    
      6 C           5.640    -0.725    -2.806  C    
      7 C           4.838    -1.823    -2.208  C    
      8 N           3.666    -1.315    -1.507  N    
      9 C           2.674    -0.647    -2.329  C    
     10 C           2.010    -1.395    -3.508  C    
     11 C           1.191    -1.071    -2.257  C    
     12 C           3.534    -1.309    -0.161  C    
     13 O           2.575    -0.732     0.346  O    
     14 C           4.490    -1.909     0.775  C    
     15 N           4.162    -1.791     2.193  N    
     16 C           4.939    -0.857     2.982  C    
     17 C           5.200     0.594     2.517  C    
     18 C           4.160     0.320     3.605  C    
     19 C           3.233    -2.577     2.775  C    
     20 O           2.569    -3.332     2.073  O    
     21 N           3.042    -2.568     4.094  N    
     22 C           2.183    -3.246     4.924  C    
     23 C           1.176    -4.166     4.533  C    
     24 C           0.363    -4.800     5.493  C    
     25 C           0.538    -4.523     6.860  C    
     26 C           1.524    -3.609     7.266  C    
     27 C           2.333    -2.978     6.304  C    
     28 H           5.862    -2.301    -5.137  H    
     29 H           5.850    -0.876    -6.181  H    
     30 H           4.395    -1.309    -5.277  H    
     31 H           7.008     1.046    -5.074  H    
     32 H           7.410     1.977    -2.704  H    
     33 H           6.218     0.392    -1.038  H    
     34 H           4.516    -2.522    -2.980  H    
     35 H           5.511    -2.395    -1.574  H    
     36 H           2.821     0.421    -2.506  H    
     37 H           1.753    -0.794    -4.382  H    
     38 H           2.215    -2.457    -3.634  H    
     39 H           0.949    -1.937    -1.631  H    
     40 H           0.454    -0.277    -2.376  H    
     41 H           4.598    -2.968     0.535  H    
     42 H           5.466    -1.452     0.587  H    
     43 H           5.690    -1.276     3.655  H    
     44 H           6.128     1.051     2.870  H    
     45 H           4.786     0.898     1.554  H    
     46 H           3.125     0.462     3.286  H    
     47 H           4.457     0.623     4.612  H    
     48 H           3.636    -1.967     4.569  H    
     49 H           1.014    -4.394     3.552  H    
     50 H          -0.359    -5.465     5.195  H    
     51 H          -0.054    -4.984     7.557  H    
     52 H           1.649    -3.401     8.259  H    
     53 H           3.046    -2.313     6.626  H    
@<TRIPOS>BOND
     1    1    2 1
     2    2    6 1
     3    2    3 1
     4    3    4 2
     5    4    5 1
     6    5    6 2
     7    6    7 1
     8    7    8 1
     9    8    9 1
    10    8   12 1
    11    9   11 1
    12    9   10 1
    13   10   11 1
    14   12   13 2
    15   12   14 1
    16   14   15 1
    17   15   16 1
    18   15   19 1
    19   16   18 1
    20   16   17 1
    21   17   18 1
    22   19   20 2
    23   19   21 1
    24   21   22 1
    25   22   27 ar
    26   22   23 ar
    27   23   24 ar
    28   24   25 ar
    29   25   26 ar
    30   26   27 ar
    31    1   28 1
    32    1   29 1
    33    1   30 1
    34    3   31 1
    35    4   32 1
    36    5   33 1
    37    7   34 1
    38    7   35 1
    39    9   36 1
    40   10   37 1
    41   10   38 1
    42   11   39 1
    43   11   40 1
    44   14   41 1
    45   14   42 1
    46   16   43 1
    47   17   44 1
    48   17   45 1
    49   18   46 1
    50   18   47 1
    51   21   48 1
    52   23   49 1
    53   24   50 1
    54   25   51 1
    55   26   52 1
    56   27   53 1
@<TRIPOS>MOLECULE
ZINC00992259
 55 57 0 0 0
SMALL
NO_CHARGES


@<TRIPOS>ATOM
      1 C           5.389    -9.772    -6.391  C    
      2 C           4.214    -9.398    -7.224  C    
      3 C           3.070   -10.226    -7.240  C    
      4 C           1.951    -9.891    -8.019  C    
      5 C           1.937    -8.724    -8.819  C    
      6 C           3.087    -7.897    -8.789  C    
      7 C           4.216    -8.204    -7.994  C    
      8 N           5.338    -7.428    -7.987  N    
      9 C           5.653    -6.122    -8.151  C    
     10 N           6.929    -5.671    -8.148  N    
     11 C           7.009    -4.352    -8.263  C    
     12 O           8.073    -3.752    -8.342  O    
     13 C           5.762    -3.619    -8.283  C    
     14 S           4.460    -4.873    -8.289  S    
     15 C           5.570    -2.660    -7.067  C    
     16 C           6.306    -1.402    -7.076  C    
     17 O           6.997    -1.095    -8.039  O    
     18 N           6.211    -0.626    -6.001  N    
     19 C           6.756     0.604    -5.738  C    
     20 C           7.125     1.555    -6.717  C    
     21 C           7.621     2.812    -6.339  C    
     22 C           7.752     3.138    -4.980  C    
     23 C           7.404     2.213    -3.961  C    
     24 C           6.894     0.956    -4.379  C    
     25 C           7.551     2.512    -2.591  C    
     26 O           7.403     1.628    -1.752  O    
     27 C           7.877     3.832    -2.066  C    
     28 C           8.087    -6.539    -8.055  C    
     29 C           8.605    -6.861    -9.373  C    
     30 C           8.561    -8.086    -9.919  C    
     31 N           0.855    -8.414    -9.596  N    
     32 O           0.823    -7.450   -10.315  O    
     33 O          -0.227    -9.150    -9.615  O    
     34 H           6.270    -9.883    -7.027  H    
     35 H           5.238   -10.709    -5.854  H    
     36 H           5.578    -8.987    -5.657  H    
     37 H           3.042   -11.083    -6.684  H    
     38 H           1.146   -10.521    -8.006  H    
     39 H           3.118    -7.070    -9.384  H    
     40 H           5.678    -3.061    -9.222  H    
     41 H           4.508    -2.398    -6.999  H    
     42 H           5.831    -3.208    -6.151  H    
     43 H           5.708    -1.009    -5.270  H    
     44 H           7.010     1.361    -7.709  H    
     45 H           7.879     3.495    -7.057  H    
     46 H           8.107     4.066    -4.748  H    
     47 H           6.613     0.266    -3.674  H    
     48 H           8.863     4.137    -2.422  H    
     49 H           7.899     3.845    -0.974  H    
     50 H           7.133     4.554    -2.399  H    
     51 H           8.888    -6.054    -7.486  H    
     52 H           7.851    -7.445    -7.492  H    
     53 H           9.001    -6.124    -9.912  H    
     54 H           8.938    -8.241   -10.828  H    
     55 H           8.152    -8.851    -9.432  H    
@<TRIPOS>BOND
     1    1    2 1
     2    2    7 ar
     3    2    3 ar
     4    3    4 ar
     5    4    5 ar
     6    5    6 ar
     7    5   31 1
     8    6    7 ar
     9    7    8 1
    10    8    9 2
    11    9   14 1
    12    9   10 1
    13   10   11 1
    14   10   28 1
    15   11   12 2
    16   11   13 1
    17   13   14 1
    18   13   15 1
    19   15   16 1
    20   16   17 2
    21   16   18 1
    22   18   19 1
    23   19   24 ar
    24   19   20 ar
    25   20   21 ar
    26   21   22 ar
    27   22   23 ar
    28   23   24 ar
    29   23   25 1
    30   25   26 2
    31   25   27 1
    32   28   29 1
    33   29   30 2
    34   31   32 2
    35   31   33 1
    36    1   34 1
    37    1   35 1
    38    1   36 1
    39    3   37 1
    40    4   38 1
    41    6   39 1
    42   13   40 1
    43   15   41 1
    44   15   42 1
    45   18   43 1
    46   20   44 1
    47   21   45 1
    48   22   46 1
    49   24   47 1
    50   27   48 1
    51   27   49 1
    52   27   50 1
    53   28   51 1
    54   28   52 1
    55   29   53 1
    56   30   54 1
    57   30   55 1
@<TRIPOS>MOLECULE
ZINC01020276
 62 64 0 0 0
SMALL
NO_CHARGES


@<TRIPOS>ATOM
      1 C           9.773    -1.223    -5.922  C    
      2 C           8.422    -0.866    -5.468  C    
      3 C           7.939    -0.902    -4.164  C    
      4 C           6.621    -0.482    -4.206  C    
      5 C           6.324    -0.203    -5.536  C    
      6 O           7.428    -0.445    -6.287  O    
      7 C           5.017     0.254    -6.065  C    
      8 C           4.483    -0.643    -7.080  C    
      9 C           4.316     0.048    -8.216  C    
     10 C           4.706     1.309    -8.035  C    
     11 O           4.639     2.177    -8.898  O    
     12 N           5.122     1.483    -6.793  N    
     13 C           5.544     2.738    -6.215  C    
     14 C           6.962     3.156    -6.691  C    
     15 C           7.475     4.453    -6.004  C    
     16 C           9.080     6.348    -6.121  C    
     17 C           9.954     4.045    -6.131  C    
     18 O           3.853    -0.414    -9.374  O    
     19 C           4.294    -1.989    -6.924  C    
     20 O           4.728    -2.714    -7.811  O    
     21 C           3.939    -2.572    -5.703  C    
     22 C           2.883    -2.046    -4.915  C    
     23 C           2.577    -2.596    -3.657  C    
     24 C           3.310    -3.690    -3.152  C    
     25 C           4.353    -4.233    -3.933  C    
     26 C           4.652    -3.690    -5.196  C    
     27 O           3.023    -4.126    -1.881  O    
     28 C           2.538    -5.479    -1.713  C    
     29 C           2.364    -5.708    -0.196  C    
     30 C           1.208    -5.753    -2.466  C    
     31 N           8.808     4.929    -6.508  N    
     32 H           9.709    -2.035    -6.648  H    
     33 H          10.397    -1.546    -5.088  H    
     34 H          10.236    -0.357    -6.393  H    
     35 H           8.452    -1.187    -3.328  H    
     36 H           5.984    -0.409    -3.408  H    
     37 H           4.297     0.380    -5.253  H    
     38 H           4.816     3.518    -6.468  H    
     39 H           5.557     2.656    -5.124  H    
     40 H           7.647     2.335    -6.471  H    
     41 H           6.953     3.311    -7.774  H    
     42 H           6.723     5.227    -6.196  H    
     43 H           7.523     4.297    -4.920  H    
     44 H           8.291     7.008    -6.495  H    
     45 H          10.022     6.695    -6.558  H    
     46 H           9.143     6.457    -5.034  H    
     47 H          10.028     3.928    -5.047  H    
     48 H          10.899     4.454    -6.500  H    
     49 H           9.843     3.056    -6.580  H    
     50 H           3.414    -1.263    -9.164  H    
     51 H           2.330    -1.251    -5.252  H    
     52 H           1.822    -2.185    -3.098  H    
     53 H           4.910    -5.016    -3.584  H    
     54 H           5.427    -4.098    -5.727  H    
     55 H           3.296    -6.193    -2.055  H    
     56 H           3.300    -5.495     0.326  H    
     57 H           2.087    -6.747     0.004  H    
     58 H           1.587    -5.049     0.202  H    
     59 H           0.444    -5.031    -2.169  H    
     60 H           0.847    -6.762    -2.252  H    
     61 H           1.364    -5.675    -3.543  H    
     62 H           8.753     4.921    -7.528  H    
@<TRIPOS>BOND
     1    1    2 1
     2    2    6 1
     3    2    3 2
     4    3    4 1
     5    4    5 2
     6    5    6 1
     7    5    7 1
     8    7   12 1
     9    7    8 1
    10    8    9 2
    11    8   19 1
    12    9   10 1
    13    9   18 1
    14   10   11 2
    15   10   12 1
    16   12   13 1
    17   13   14 1
    18   14   15 1
    19   15   31 1
    20   16   31 1
    21   17   31 1
    22   19   20 2
    23   19   21 1
    24   21   26 ar
    25   21   22 ar
    26   22   23 ar
    27   23   24 ar
    28   24   25 ar
    29   24   27 1
    30   25   26 ar
    31   27   28 1
    32   28   29 1
    33   28   30 1
    34    1   32 1
    35    1   33 1
    36    1   34 1
    37    3   35 1
    38    4   36 1
    39    7   37 1
    40   13   38 1
    41   13   39 1
    42   14   40 1
    43   14   41 1
    44   15   42 1
    45   15   43 1
    46   16   44 1
    47   16   45 1
    48   16   46 1
    49   17   47 1
    50   17   48 1
    51   17   49 1
    52   18   50 1
    53   22   51 1
    54   23   52 1
    55   25   53 1
    56   26   54 1
    57   28   55 1
    58   29   56 1
    59   29   57 1
    60   29   58 1
    61   30   59 1
    62   30   60 1
    63   30   61 1
    64   31   62 1
@<TRIPOS>MOLECULE
ZINC01083999
 54 56 0 0 0
SMALL
NO_CHARGES


@<TRIPOS>ATOM
      1 C           6.011     2.059    -4.724  C    
      2 O           5.669     0.880    -5.474  O    
      3 C           4.414     0.310    -5.408  C    
      4 C           3.356     0.752    -4.573  C    
      5 C           2.096     0.103    -4.583  C    
      6 C           1.903    -1.013    -5.429  C    
      7 C           2.941    -1.446    -6.280  C    
      8 C           4.199    -0.803    -6.253  C    
      9 O           5.191    -1.228    -7.101  O    
     10 C           6.098    -2.171    -6.499  C    
     11 C           7.044    -2.649    -7.535  C    
     12 C           6.752    -3.801    -8.300  C    
     13 C           7.662    -4.266    -9.282  C    
     14 C           8.879    -3.587    -9.525  C    
     15 C           9.163    -2.428    -8.764  C    
     16 C           8.254    -1.961    -7.781  C    
     17 C           9.794    -4.060   -10.498  C    
     18 O          10.963    -3.424   -10.743  O    
     19 Cl          2.638    -2.740    -7.336  Cl   
     20 C           1.042     0.510    -3.767  C    
     21 C           0.653     1.781    -3.543  C    
     22 C          -0.391     1.982    -2.808  C    
     23 N          -1.190     1.897    -1.992  N    
     24 C           0.947     2.819    -4.408  C    
     25 O           0.939     2.626    -5.616  O    
     26 N           1.195     4.041    -3.936  N    
     27 C           1.471     5.191    -4.753  C    
     28 C           1.671     6.370    -3.883  C    
     29 C           0.586     7.220    -3.558  C    
     30 C           0.777     8.334    -2.711  C    
     31 C           2.056     8.603    -2.177  C    
     32 C           3.141     7.752    -2.484  C    
     33 C           2.946     6.637    -3.328  C    
     34 O           9.540    -5.167   -11.233  O    
     35 H           5.362     2.893    -4.994  H    
     36 H           7.038     2.331    -4.967  H    
     37 H           5.954     1.864    -3.653  H    
     38 H           3.504     1.531    -3.948  H    
     39 H           1.008    -1.492    -5.447  H    
     40 H           6.657    -1.705    -5.681  H    
     41 H           5.556    -3.026    -6.079  H    
     42 H           5.889    -4.310    -8.157  H    
     43 H           7.419    -5.100    -9.801  H    
     44 H          10.022    -1.911    -8.902  H    
     45 H           8.488    -1.127    -7.258  H    
     46 H           0.536    -0.224    -3.345  H    
     47 H           1.177     4.174    -2.981  H    
     48 H           2.371     5.020    -5.355  H    
     49 H           0.643     5.378    -5.448  H    
     50 H          -0.340     7.034    -3.919  H    
     51 H          -0.002     8.940    -2.485  H    
     52 H           2.197     9.407    -1.577  H    
     53 H           4.057     7.942    -2.097  H    
     54 H           3.730     6.031    -3.525  H    
@<TRIPOS>BOND
     1    1    2 1
     2    2    3 1
     3    3    8 ar
     4    3    4 ar
     5    4    5 ar
     6    5    6 ar
     7    5   20 1
     8    6    7 ar
     9    7    8 ar
    10    7   19 1
    11    8    9 1
    12    9   10 1
    13   10   11 1
    14   11   16 ar
    15   11   12 ar
    16   12   13 ar
    17   13   14 ar
    18   14   15 ar
    19   14   17 1
    20   15   16 ar
    21   17   18 2
    22   17   34 1
    23   20   21 2
    24   21   22 1
    25   21   24 1
    26   22   23 3
    27   24   25 2
    28   24   26 1
    29   26   27 1
    30   27   28 1
    31   28   33 ar
    32   28   29 ar
    33   29   30 ar
    34   30   31 ar
    35   31   32 ar
    36   32   33 ar
    37    1   35 1
    38    1   36 1
    39    1   37 1
    40    4   38 1
    41    6   39 1
    42   10   40 1
    43   10   41 1
    44   12   42 1
    45   13   43 1
    46   15   44 1
    47   16   45 1
    48   20   46 1
    49   26   47 1
    50   27   48 1
    51   27   49 1
    52   29   50 1
    53   30   51 1
    54   31   52 1
    55   32   53 1
    56   33   54 1
@<TRIPOS>MOLECULE
ZINC01102873
 42 43 0 0 0
SMALL
NO_CHARGES


@<TRIPOS>ATOM
      1 C          10.698    -1.627     0.129  C    
      2 C           9.576    -2.640    -0.180  C    
      3 O           8.252    -2.102     0.005  O    
      4 C           7.819    -1.240    -0.969  C    
      5 C           7.271    -1.744    -2.166  C    
      6 C           6.768    -0.879    -3.171  C    
      7 C           6.830     0.516    -2.935  C    
      8 C           7.359     1.026    -1.736  C    
      9 C           7.828     0.152    -0.738  C    
     10 O           8.347     0.663     0.420  O    
     11 C           7.375     0.810     1.470  C    
     12 C           8.061     1.310     2.668  C    
     13 O           9.072     0.604     3.217  O    
     14 C           6.211    -1.354    -4.356  C    
     15 N           6.216    -2.598    -4.670  N    
     16 N           5.696    -3.093    -5.719  N    
     17 C           5.781    -4.375    -6.050  C    
     18 O           6.408    -5.140    -5.325  O    
     19 C           5.129    -4.872    -7.182  C    
     20 C           3.885    -4.307    -7.577  C    
     21 C           3.173    -4.807    -8.681  C    
     22 C           3.689    -5.879    -9.422  C    
     23 C           4.922    -6.445    -9.060  C    
     24 C           5.642    -5.954    -7.953  C    
     25 Br          7.303    -6.749    -7.644  Br   
     26 O           7.718     2.492     3.223  O    
     27 H          10.692    -0.817    -0.600  H    
     28 H          11.668    -2.125     0.086  H    
     29 H          10.560    -1.209     1.127  H    
     30 H           9.711    -3.044    -1.188  H    
     31 H           9.675    -3.474     0.516  H    
     32 H           7.237    -2.758    -2.294  H    
     33 H           6.485     1.179    -3.635  H    
     34 H           7.390     2.037    -1.585  H    
     35 H           6.594     1.517     1.173  H    
     36 H           6.909    -0.147     1.719  H    
     37 H           5.797    -0.706    -4.990  H    
     38 H           5.210    -2.496    -6.311  H    
     39 H           3.466    -3.538    -7.049  H    
     40 H           2.274    -4.394    -8.941  H    
     41 H           3.172    -6.244   -10.224  H    
     42 H           5.297    -7.218    -9.614  H    
@<TRIPOS>BOND
     1    1    2 1
     2    2    3 1
     3    3    4 1
     4    4    9 ar
     5    4    5 ar
     6    5    6 ar
     7    6    7 ar
     8    6   14 1
     9    7    8 ar
    10    8    9 ar
    11    9   10 1
    12   10   11 1
    13   11   12 1
    14   12   13 2
    15   12   26 1
    16   14   15 2
    17   15   16 1
    18   16   17 1
    19   17   18 2
    20   17   19 1
    21   19   24 ar
    22   19   20 ar
    23   20   21 ar
    24   21   22 ar
    25   22   23 ar
    26   23   24 ar
    27   24   25 1
    28    1   27 1
    29    1   28 1
    30    1   29 1
    31    2   30 1
    32    2   31 1
    33    5   32 1
    34    7   33 1
    35    8   34 1
    36   11   35 1
    37   11   36 1
    38   14   37 1
    39   16   38 1
    40   20   39 1
    41   21   40 1
    42   22   41 1
    43   23   42 1
@<TRIPOS>MOLECULE
ZINC01121653
 49 50 0 0 0
SMALL
NO_CHARGES


@<TRIPOS>ATOM
      1 C           5.235     1.390    -9.915  C    
      2 C           5.530    -0.108   -10.231  C    
      3 C           6.941    -0.252   -10.871  C    
      4 C           5.381    -1.013    -9.089  C    
      5 O           5.229    -0.559    -7.963  O    
      6 N           5.345    -2.322    -9.321  N    
      7 C           5.189    -3.379    -8.463  C    
      8 C           5.443    -3.360    -7.070  C    
      9 C           5.230    -4.505    -6.278  C    
     10 C           4.758    -5.709    -6.854  C    
     11 C           4.572    -5.744    -8.253  C    
     12 C           4.778    -4.597    -9.042  C    
     13 N           4.492    -6.868    -6.189  N    
     14 C           4.368    -7.161    -4.891  C    
     15 S           3.812    -6.014    -3.750  S    
     16 N           4.447    -8.474    -4.639  N    
     17 C           4.138    -9.193    -3.559  C    
     18 O           3.623    -8.687    -2.568  O    
     19 C           4.246   -10.545    -3.637  C    
     20 C           4.369   -11.426    -2.626  C    
     21 C           4.603   -11.149    -1.280  C    
     22 C           5.588   -10.225    -0.866  C    
     23 C           5.817    -9.990     0.497  C    
     24 C           5.065   -10.664     1.484  C    
     25 C           4.061   -11.613     1.109  C    
     26 C           3.877   -11.846    -0.284  C    
     27 N           3.278   -12.291     2.011  N    
     28 O           2.413   -13.064     1.672  O    
     29 O           3.344   -12.138     3.303  O    
     30 Cl          5.467   -10.269     3.086  Cl   
     31 H           5.949     1.782    -9.187  H    
     32 H           4.225     1.496    -9.510  H    
     33 H           5.301     1.991   -10.822  H    
     34 H           4.793    -0.410   -10.983  H    
     35 H           7.032     0.391   -11.748  H    
     36 H           7.116    -1.282   -11.193  H    
     37 H           7.720     0.026   -10.155  H    
     38 H           5.381    -2.568   -10.260  H    
     39 H           5.808    -2.523    -6.616  H    
     40 H           5.466    -4.455    -5.287  H    
     41 H           4.254    -6.602    -8.712  H    
     42 H           4.606    -4.656   -10.050  H    
     43 H           4.351    -7.629    -6.775  H    
     44 H           4.776    -8.999    -5.387  H    
     45 H           4.143   -10.943    -4.545  H    
     46 H           4.244   -12.385    -2.859  H    
     47 H           6.167    -9.731    -1.555  H    
     48 H           6.540    -9.312     0.764  H    
     49 H           3.175   -12.524    -0.592  H    
@<TRIPOS>BOND
     1    1    2 1
     2    2    3 1
     3    2    4 1
     4    4    5 2
     5    4    6 1
     6    6    7 1
     7    7   12 ar
     8    7    8 ar
     9    8    9 ar
    10    9   10 ar
    11   10   11 ar
    12   10   13 1
    13   11   12 ar
    14   13   14 1
    15   14   15 2
    16   14   16 1
    17   16   17 1
    18   17   18 2
    19   17   19 1
    20   19   20 2
    21   20   21 1
    22   21   26 ar
    23   21   22 ar
    24   22   23 ar
    25   23   24 ar
    26   24   25 ar
    27   24   30 1
    28   25   26 ar
    29   25   27 1
    30   27   28 2
    31   27   29 1
    32    1   31 1
    33    1   32 1
    34    1   33 1
    35    2   34 1
    36    3   35 1
    37    3   36 1
    38    3   37 1
    39    6   38 1
    40    8   39 1
    41    9   40 1
    42   11   41 1
    43   12   42 1
    44   13   43 1
    45   16   44 1
    46   19   45 1
    47   20   46 1
    48   22   47 1
    49   23   48 1
    50   26   49 1
@<TRIPOS>MOLECULE
ZINC01139279
 53 55 0 0 0
SMALL
NO_CHARGES


@<TRIPOS>ATOM
      1 C           0.688   -10.524    -5.607  C    
      2 C           1.504    -9.239    -5.859  C    
      3 O           2.319    -8.965    -4.700  O    
      4 C           3.141    -7.880    -4.845  C    
      5 C           2.659    -6.568    -4.642  C    
      6 C           3.530    -5.467    -4.746  C    
      7 C           4.899    -5.666    -5.032  C    
      8 C           5.379    -6.982    -5.225  C    
      9 C           4.506    -8.082    -5.128  C    
     10 N           5.757    -4.607    -5.099  N    
     11 C           6.215    -4.105    -6.371  C    
     12 C           5.924    -2.693    -6.544  C    
     13 O           6.859    -1.927    -6.733  O    
     14 N           4.662    -2.295    -6.430  N    
     15 C           4.096    -1.048    -6.388  C    
     16 C           4.786     0.187    -6.478  C    
     17 C           4.094     1.403    -6.373  C    
     18 C           2.702     1.408    -6.179  C    
     19 C           1.969     0.198    -6.079  C    
     20 C           2.695    -1.016    -6.190  C    
     21 N           0.616     0.213    -5.878  N    
     22 O          -0.037    -0.796    -5.767  O    
     23 O          -0.070     1.321    -5.786  O    
     24 S           6.374    -3.971    -3.655  S    
     25 O           5.993    -4.929    -2.444  O    
     26 O           7.964    -4.039    -3.689  O    
     27 C           5.782    -2.379    -3.267  C    
     28 C           4.445    -2.213    -2.852  C    
     29 C           3.933    -0.926    -2.600  C    
     30 C           4.762     0.200    -2.761  C    
     31 C           6.095     0.040    -3.171  C    
     32 C           6.606    -1.246    -3.426  C    
     33 H           1.362   -11.380    -5.503  H    
     34 H           0.010   -10.706    -6.444  H    
     35 H           0.097   -10.424    -4.694  H    
     36 H           2.126    -9.380    -6.751  H    
     37 H           0.803    -8.411    -6.040  H    
     38 H           1.676    -6.412    -4.414  H    
     39 H           3.159    -4.521    -4.604  H    
     40 H           6.368    -7.144    -5.423  H    
     41 H           4.870    -9.029    -5.261  H    
     42 H           7.289    -4.300    -6.454  H    
     43 H           5.735    -4.637    -7.197  H    
     44 H           4.030    -3.019    -6.302  H    
     45 H           5.797     0.233    -6.609  H    
     46 H           4.604     2.289    -6.444  H    
     47 H           2.233     2.312    -6.110  H    
     48 H           2.193    -1.905    -6.108  H    
     49 H           3.838    -3.026    -2.729  H    
     50 H           2.962    -0.810    -2.294  H    
     51 H           4.400     1.136    -2.577  H    
     52 H           6.691     0.862    -3.294  H    
     53 H           7.573    -1.343    -3.743  H    
@<TRIPOS>BOND
     1    1    2 1
     2    2    3 1
     3    3    4 1
     4    4    9 ar
     5    4    5 ar
     6    5    6 ar
     7    6    7 ar
     8    7    8 ar
     9    7   10 1
    10    8    9 ar
    11   10   11 1
    12   10   24 1
    13   11   12 1
    14   12   13 2
    15   12   14 1
    16   14   15 1
    17   15   20 ar
    18   15   16 ar
    19   16   17 ar
    20   17   18 ar
    21   18   19 ar
    22   19   20 ar
    23   19   21 1
    24   21   22 2
    25   21   23 1
    26   24   25 2
    27   24   26 2
    28   24   27 1
    29   27   32 ar
    30   27   28 ar
    31   28   29 ar
    32   29   30 ar
    33   30   31 ar
    34   31   32 ar
    35    1   33 1
    36    1   34 1
    37    1   35 1
    38    2   36 1
    39    2   37 1
    40    5   38 1
    41    6   39 1
    42    8   40 1
    43    9   41 1
    44   11   42 1
    45   11   43 1
    46   14   44 1
    47   16   45 1
    48   17   46 1
    49   18   47 1
    50   20   48 1
    51   28   49 1
    52   29   50 1
    53   30   51 1
    54   31   52 1
    55   32   53 1
@<TRIPOS>MOLECULE
ZINC01155279
 66 69 0 0 0
SMALL
NO_CHARGES


@<TRIPOS>ATOM
      1 C           0.818    -4.766    -2.677  C    
      2 C           0.694    -5.995    -3.510  C    
      3 C          -0.451    -6.152    -4.327  C    
      4 C          -0.639    -7.287    -5.138  C    
      5 C           0.350    -8.295    -5.120  C    
      6 C           1.501    -8.153    -4.333  C    
      7 C           1.706    -6.999    -3.544  C    
      8 C           2.925    -6.860    -2.882  C    
      9 O           2.867    -6.737    -1.662  O    
     10 C           4.131    -6.717    -3.540  C    
     11 C           5.358    -6.721    -2.997  C    
     12 C           6.277    -6.539    -3.946  C    
     13 O           7.484    -6.566    -3.741  O    
     14 N           5.702    -6.429    -5.128  N    
     15 C           4.283    -6.514    -4.978  C    
     16 C           3.572    -5.305    -5.502  C    
     17 C           3.853    -4.013    -5.004  C    
     18 C           3.135    -2.899    -5.459  C    
     19 C           2.122    -3.061    -6.415  C    
     20 C           1.808    -4.335    -6.950  C    
     21 C           2.559    -5.442    -6.482  C    
     22 N           0.811    -4.486    -7.872  N    
     23 O           0.515    -5.557    -8.344  O    
     24 O           0.114    -3.476    -8.318  O    
     25 C           6.383    -6.369    -6.399  C    
     26 C           7.025    -4.984    -6.672  C    
     27 C           7.768    -4.923    -8.034  C    
     28 C           8.534    -3.425    -9.873  C    
     29 C           8.918    -1.970   -10.237  C    
     30 O          10.002    -1.506    -9.411  O    
     31 C           9.718    -1.573    -7.999  C    
     32 C           9.350    -3.017    -7.579  C    
     33 O           5.693    -6.899    -1.721  O    
     34 O          -1.775    -7.276    -5.920  O    
     35 C          -2.204    -8.459    -6.611  C    
     36 N           8.217    -3.541    -8.413  N    
     37 H           0.825    -5.040    -1.621  H    
     38 H          -0.007    -4.066    -2.832  H    
     39 H           1.744    -4.242    -2.913  H    
     40 H          -1.171    -5.425    -4.337  H    
     41 H           0.250    -9.136    -5.690  H    
     42 H           2.204    -8.897    -4.355  H    
     43 H           3.951    -7.422    -5.493  H    
     44 H           4.579    -3.879    -4.297  H    
     45 H           3.344    -1.972    -5.086  H    
     46 H           1.612    -2.231    -6.720  H    
     47 H           2.355    -6.372    -6.854  H    
     48 H           7.156    -7.142    -6.429  H    
     49 H           5.678    -6.586    -7.202  H    
     50 H           6.240    -4.220    -6.673  H    
     51 H           7.720    -4.753    -5.864  H    
     52 H           8.622    -5.605    -8.022  H    
     53 H           7.070    -5.286    -8.798  H    
     54 H           7.660    -3.707   -10.471  H    
     55 H           9.361    -4.094   -10.140  H    
     56 H           9.238    -1.931   -11.282  H    
     57 H           8.048    -1.315   -10.124  H    
     58 H          10.605    -1.251    -7.455  H    
     59 H           8.899    -0.890    -7.749  H    
     60 H          10.234    -3.656    -7.689  H    
     61 H           9.075    -2.994    -6.524  H    
     62 H           4.887    -7.225    -1.261  H    
     63 H          -1.460    -8.769    -7.353  H    
     64 H          -3.134    -8.230    -7.140  H    
     65 H          -2.397    -9.278    -5.911  H    
     66 H           7.424    -2.920    -8.243  H    
@<TRIPOS>BOND
     1    1    2 1
     2    2    7 ar
     3    2    3 ar
     4    3    4 ar
     5    4    5 ar
     6    4   34 1
     7    5    6 ar
     8    6    7 ar
     9    7    8 1
    10    8    9 2
    11    8   10 1
    12   10   15 1
    13   10   11 2
    14   11   12 1
    15   11   33 1
    16   12   13 2
    17   12   14 1
    18   14   15 1
    19   14   25 1
    20   15   16 1
    21   16   21 ar
    22   16   17 ar
    23   17   18 ar
    24   18   19 ar
    25   19   20 ar
    26   20   21 ar
    27   20   22 1
    28   22   23 2
    29   22   24 1
    30   25   26 1
    31   26   27 1
    32   27   36 1
    33   28   29 1
    34   28   36 1
    35   29   30 1
    36   30   31 1
    37   31   32 1
    38   32   36 1
    39   34   35 1
    40    1   37 1
    41    1   38 1
    42    1   39 1
    43    3   40 1
    44    5   41 1
    45    6   42 1
    46   15   43 1
    47   17   44 1
    48   18   45 1
    49   19   46 1
    50   21   47 1
    51   25   48 1
    52   25   49 1
    53   26   50 1
    54   26   51 1
    55   27   52 1
    56   27   53 1
    57   28   54 1
    58   28   55 1
    59   29   56 1
    60   29   57 1
    61   31   58 1
    62   31   59 1
    63   32   60 1
    64   32   61 1
    65   33   62 1
    66   35   63 1
    67   35   64 1
    68   35   65 1
    69   36   66 1
@<TRIPOS>MOLECULE
ZINC01204217
 56 58 0 0 0
SMALL
NO_CHARGES


@<TRIPOS>ATOM
      1 C           2.598   -16.445    -3.849  C    
      2 C           1.509   -15.477    -4.348  C    
      3 O           1.997   -14.133    -4.280  O    
      4 C           1.339   -12.997    -4.645  C    
      5 O           0.094   -13.109    -5.166  O    
      6 C           1.967   -11.726    -4.517  C    
      7 C           3.261   -11.605    -3.956  C    
      8 C           3.896   -10.355    -3.852  C    
      9 C           3.263    -9.177    -4.317  C    
     10 C           1.965    -9.295    -4.853  C    
     11 C           1.324   -10.545    -4.948  C    
     12 N           3.788    -7.907    -4.299  N    
     13 C           4.984    -7.428    -3.958  C    
     14 O           5.877    -8.175    -3.564  O    
     15 C           5.252    -6.057    -4.043  C    
     16 C           4.224    -5.092    -3.888  C    
     17 C           4.503    -3.715    -3.942  C    
     18 C           5.817    -3.262    -4.174  C    
     19 C           6.846    -4.208    -4.351  C    
     20 C           6.569    -5.585    -4.278  C    
     21 N           6.109    -1.928    -4.187  N    
     22 C           6.498    -1.256    -5.405  C    
     23 C           5.622    -0.091    -5.713  C    
     24 C           6.121     1.234    -5.704  C    
     25 C           5.272     2.324    -5.971  C    
     26 C           3.913     2.098    -6.259  C    
     27 C           3.403     0.788    -6.280  C    
     28 C           4.253    -0.299    -6.009  C    
     29 S           6.163    -1.101    -2.706  S    
     30 O           6.580    -2.102    -1.545  O    
     31 O           7.360    -0.050    -2.722  O    
     32 C           4.641    -0.247    -2.255  C    
     33 H           3.499   -16.336    -4.453  H    
     34 H           2.248   -17.476    -3.934  H    
     35 H           2.837   -16.240    -2.804  H    
     36 H           1.247   -15.727    -5.382  H    
     37 H           0.617   -15.572    -3.722  H    
     38 H           3.764   -12.429    -3.624  H    
     39 H           4.823   -10.328    -3.430  H    
     40 H           1.472    -8.462    -5.188  H    
     41 H           0.388   -10.579    -5.357  H    
     42 H           3.178    -7.230    -4.630  H    
     43 H           3.262    -5.379    -3.700  H    
     44 H           3.742    -3.045    -3.806  H    
     45 H           7.805    -3.897    -4.518  H    
     46 H           7.343    -6.242    -4.408  H    
     47 H           7.544    -0.943    -5.304  H    
     48 H           6.462    -1.935    -6.265  H    
     49 H           7.108     1.410    -5.491  H    
     50 H           5.645     3.274    -5.958  H    
     51 H           3.299     2.887    -6.459  H    
     52 H           2.415     0.627    -6.490  H    
     53 H           3.868    -1.245    -6.022  H    
     54 H           4.395     0.492    -3.013  H    
     55 H           4.777     0.248    -1.295  H    
     56 H           3.828    -0.970    -2.174  H    
@<TRIPOS>BOND
     1    1    2 1
     2    2    3 1
     3    3    4 1
     4    4    5 2
     5    4    6 1
     6    6   11 ar
     7    6    7 ar
     8    7    8 ar
     9    8    9 ar
    10    9   10 ar
    11    9   12 1
    12   10   11 ar
    13   12   13 1
    14   13   14 2
    15   13   15 1
    16   15   20 ar
    17   15   16 ar
    18   16   17 ar
    19   17   18 ar
    20   18   19 ar
    21   18   21 1
    22   19   20 ar
    23   21   22 1
    24   21   29 1
    25   22   23 1
    26   23   28 ar
    27   23   24 ar
    28   24   25 ar
    29   25   26 ar
    30   26   27 ar
    31   27   28 ar
    32   29   30 2
    33   29   31 2
    34   29   32 1
    35    1   33 1
    36    1   34 1
    37    1   35 1
    38    2   36 1
    39    2   37 1
    40    7   38 1
    41    8   39 1
    42   10   40 1
    43   11   41 1
    44   12   42 1
    45   16   43 1
    46   17   44 1
    47   19   45 1
    48   20   46 1
    49   22   47 1
    50   22   48 1
    51   24   49 1
    52   25   50 1
    53   26   51 1
    54   27   52 1
    55   28   53 1
    56   32   54 1
    57   32   55 1
    58   32   56 1
@<TRIPOS>MOLECULE
ZINC01339483
 63 67 0 0 0
SMALL
NO_CHARGES


@<TRIPOS>ATOM
      1 C           8.259    -4.508    -6.890  C    
      2 C           7.599    -3.181    -6.996  C    
      3 C           8.206    -2.182    -7.790  C    
      4 C           7.584    -0.940    -7.980  C    
      5 C           6.325    -0.695    -7.418  C    
      6 C           5.676    -1.677    -6.635  C    
      7 C           6.351    -2.906    -6.360  C    
      8 N           5.801    -3.837    -5.481  N    
      9 C           6.326    -3.901    -4.100  C    
     10 C           7.409    -2.927    -3.698  C    
     11 C           8.715    -3.377    -3.372  C    
     12 C           9.734    -2.473    -3.021  C    
     13 C           9.437    -1.100    -2.985  C    
     14 N           8.184    -0.675    -3.285  N    
     15 C           7.186    -1.528    -3.629  C    
     16 C           5.307    -3.855    -3.049  C    
     17 O           5.329    -4.702    -2.161  O    
     18 N           4.391    -2.900    -3.047  N    
     19 C           3.389    -2.648    -2.065  C    
     20 C           3.473    -1.230    -1.681  C    
     21 C           3.804    -0.712    -0.432  C    
     22 C           3.772     0.672    -0.546  C    
     23 C           3.426     0.959    -1.860  C    
     24 O           3.248    -0.200    -2.538  O    
     25 C           4.929    -4.744    -5.988  C    
     26 O           4.592    -4.672    -7.167  O    
     27 C           4.288    -5.817    -5.220  C    
     28 N           3.646    -6.839    -6.000  N    
     29 C           4.246    -7.770    -6.762  C    
     30 C           5.588    -8.079    -7.062  C    
     31 C           5.855    -9.169    -7.920  C    
     32 C           4.793    -9.926    -8.466  C    
     33 C           3.453    -9.602    -8.158  C    
     34 C           3.209    -8.517    -7.299  C    
     35 N           2.075    -7.987    -6.825  N    
     36 N           2.382    -7.018    -6.074  N    
     37 C           4.301    -1.360    -6.163  C    
     38 H           8.528    -4.723    -5.857  H    
     39 H           9.171    -4.570    -7.485  H    
     40 H           7.583    -5.284    -7.249  H    
     41 H           9.108    -2.350    -8.245  H    
     42 H           8.039    -0.225    -8.550  H    
     43 H           5.874     0.206    -7.600  H    
     44 H           6.782    -4.898    -4.047  H    
     45 H           8.943    -4.375    -3.398  H    
     46 H          10.673    -2.806    -2.796  H    
     47 H          10.156    -0.418    -2.737  H    
     48 H           6.273    -1.128    -3.842  H    
     49 H           4.421    -2.278    -3.786  H    
     50 H           2.404    -2.832    -2.507  H    
     51 H           3.495    -3.285    -1.184  H    
     52 H           4.030    -1.245     0.411  H    
     53 H           3.969     1.347     0.194  H    
     54 H           3.320     1.897    -2.257  H    
     55 H           5.020    -6.322    -4.588  H    
     56 H           3.546    -5.353    -4.568  H    
     57 H           6.352    -7.531    -6.662  H    
     58 H           6.823    -9.413    -8.144  H    
     59 H           4.995   -10.717    -9.081  H    
     60 H           2.677   -10.145    -8.545  H    
     61 H           4.333    -0.547    -5.434  H    
     62 H           3.801    -2.209    -5.713  H    
     63 H           3.687    -1.044    -7.009  H    
@<TRIPOS>BOND
     1    1    2 1
     2    2    7 ar
     3    2    3 ar
     4    3    4 ar
     5    4    5 ar
     6    5    6 ar
     7    6    7 ar
     8    6   37 1
     9    7    8 1
    10    8    9 1
    11    8   25 1
    12    9   10 1
    13    9   16 1
    14   10   15 ar
    15   10   11 ar
    16   11   12 ar
    17   12   13 ar
    18   13   14 ar
    19   14   15 ar
    20   16   17 2
    21   16   18 1
    22   18   19 1
    23   19   20 1
    24   20   24 1
    25   20   21 2
    26   21   22 1
    27   22   23 2
    28   23   24 1
    29   25   26 2
    30   25   27 1
    31   27   28 1
    32   28   36 1
    33   28   29 1
    34   29   34 ar
    35   29   30 ar
    36   30   31 ar
    37   31   32 ar
    38   32   33 ar
    39   33   34 ar
    40   34   35 1
    41   35   36 2
    42    1   38 1
    43    1   39 1
    44    1   40 1
    45    3   41 1
    46    4   42 1
    47    5   43 1
    48    9   44 1
    49   11   45 1
    50   12   46 1
    51   13   47 1
    52   15   48 1
    53   18   49 1
    54   19   50 1
    55   19   51 1
    56   21   52 1
    57   22   53 1
    58   23   54 1
    59   27   55 1
    60   27   56 1
    61   30   57 1
    62   31   58 1
    63   32   59 1
    64   33   60 1
    65   37   61 1
    66   37   62 1
    67   37   63 1
@<TRIPOS>MOLECULE
ZINC01373312
 70 74 0 0 0
SMALL
NO_CHARGES


@<TRIPOS>ATOM
      1 C           5.056     0.981    -1.692  C    
      2 C           5.293     1.508    -3.064  C    
      3 C           5.603     2.878    -3.224  C    
      4 C           5.832     3.423    -4.495  C    
      5 C           5.756     2.627    -5.660  C    
      6 C           5.436     1.250    -5.515  C    
      7 C           5.214     0.683    -4.225  C    
      8 C           4.919    -0.690    -4.175  C    
      9 C           4.840    -1.475    -5.274  C    
     10 C           5.025    -0.872    -6.502  C    
     11 O           4.929    -1.489    -7.558  O    
     12 N           5.315     0.421    -6.604  N    
     13 C           4.543    -2.919    -5.211  C    
     14 C           3.284    -3.378    -3.043  C    
     15 C           2.384    -4.637    -2.927  C    
     16 C           1.259    -4.438    -1.975  C    
     17 C          -0.057    -4.187    -2.436  C    
     18 C          -1.114    -3.991    -1.523  C    
     19 C          -0.873    -4.049    -0.141  C    
     20 C           0.429    -4.308     0.334  C    
     21 C           1.485    -4.497    -0.578  C    
     22 C           5.790    -3.763    -3.183  C    
     23 C           5.852    -5.015    -2.408  C    
     24 N           5.845    -5.103    -1.075  N    
     25 N           5.897    -6.333    -0.796  N    
     26 N           5.937    -7.014    -1.816  N    
     27 N           5.911    -6.282    -2.847  N    
     28 C           6.002    -6.779    -4.193  C    
     29 C           4.802    -7.687    -4.570  C    
     30 C           4.952    -8.220    -5.950  C    
     31 C           4.615    -7.429    -7.074  C    
     32 C           4.808    -7.914    -8.384  C    
     33 C           5.350    -9.199    -8.585  C    
     34 C           5.685    -9.999    -7.478  C    
     35 C           5.487    -9.514    -6.170  C    
     36 C           6.020     3.293    -6.961  C    
     37 N           4.480    -3.674    -3.913  N    
     38 H           4.052     0.560    -1.630  H    
     39 H           5.141     1.747    -0.917  H    
     40 H           5.785     0.201    -1.467  H    
     41 H           5.667     3.498    -2.409  H    
     42 H           6.057     4.418    -4.563  H    
     43 H           4.753    -1.096    -3.292  H    
     44 H           5.432     0.791    -7.493  H    
     45 H           3.588    -3.081    -5.723  H    
     46 H           5.292    -3.438    -5.817  H    
     47 H           2.673    -2.568    -3.461  H    
     48 H           3.590    -3.059    -2.039  H    
     49 H           2.003    -4.875    -3.926  H    
     50 H           2.978    -5.494    -2.595  H    
     51 H          -0.253    -4.135    -3.439  H    
     52 H          -2.059    -3.801    -1.871  H    
     53 H          -1.638    -3.908     0.520  H    
     54 H           0.604    -4.355     1.340  H    
     55 H           2.425    -4.683    -0.214  H    
     56 H           5.936    -2.916    -2.511  H    
     57 H           6.635    -3.773    -3.874  H    
     58 H           6.050    -5.950    -4.908  H    
     59 H           6.933    -7.348    -4.283  H    
     60 H           4.735    -8.512    -3.851  H    
     61 H           3.872    -7.113    -4.495  H    
     62 H           4.232    -6.487    -6.948  H    
     63 H           4.562    -7.334    -9.188  H    
     64 H           5.498    -9.548    -9.533  H    
     65 H           6.081   -10.931    -7.622  H    
     66 H           5.752   -10.106    -5.379  H    
     67 H           5.288     4.090    -7.116  H    
     68 H           5.965     2.612    -7.807  H    
     69 H           7.019     3.736    -6.947  H    
     70 H           4.316    -4.631    -4.233  H    
@<TRIPOS>BOND
     1    1    2 1
     2    2    7 ar
     3    2    3 ar
     4    3    4 ar
     5    4    5 ar
     6    5    6 ar
     7    5   36 1
     8    6   12 1
     9    6    7 ar
    10    7    8 1
    11    8    9 2
    12    9   10 1
    13    9   13 1
    14   10   11 2
    15   10   12 1
    16   13   37 1
    17   14   15 1
    18   14   37 1
    19   15   16 1
    20   16   21 ar
    21   16   17 ar
    22   17   18 ar
    23   18   19 ar
    24   19   20 ar
    25   20   21 ar
    26   22   23 1
    27   22   37 1
    28   23   27 1
    29   23   24 2
    30   24   25 1
    31   25   26 2
    32   26   27 1
    33   27   28 1
    34   28   29 1
    35   29   30 1
    36   30   35 ar
    37   30   31 ar
    38   31   32 ar
    39   32   33 ar
    40   33   34 ar
    41   34   35 ar
    42    1   38 1
    43    1   39 1
    44    1   40 1
    45    3   41 1
    46    4   42 1
    47    8   43 1
    48   12   44 1
    49   13   45 1
    50   13   46 1
    51   14   47 1
    52   14   48 1
    53   15   49 1
    54   15   50 1
    55   17   51 1
    56   18   52 1
    57   19   53 1
    58   20   54 1
    59   21   55 1
    60   22   56 1
    61   22   57 1
    62   28   58 1
    63   28   59 1
    64   29   60 1
    65   29   61 1
    66   31   62 1
    67   32   63 1
    68   33   64 1
    69   34   65 1
    70   35   66 1
    71   36   67 1
    72   36   68 1
    73   36   69 1
    74   37   70 1
@<TRIPOS>MOLECULE
ZINC00674277
 56 58 0 0 0
SMALL
NO_CHARGES


@<TRIPOS>ATOM
      1 C           8.774    -8.515     0.508  C    
      2 C           7.864    -7.299     0.751  C    
      3 O           8.371    -6.174     0.005  O    
      4 C           7.603    -5.048     0.117  C    
      5 C           7.788    -4.152     1.188  C    
      6 C           7.027    -2.970     1.264  C    
      7 C           6.082    -2.650     0.260  C    
      8 C           5.916    -3.547    -0.818  C    
      9 C           6.671    -4.733    -0.892  C    
     10 N           5.317    -1.521     0.245  N    
     11 S           5.203    -0.362     1.469  S    
     12 O           4.740    -1.071     2.813  O    
     13 O           6.601     0.365     1.675  O    
     14 C           3.960     0.797     1.085  C    
     15 C           2.711     0.353     0.609  C    
     16 C           1.700     1.277     0.289  C    
     17 C           1.913     2.671     0.435  C    
     18 C           3.162     3.100     0.935  C    
     19 C           4.175     2.179     1.255  C    
     20 N           1.011     3.665     0.148  N    
     21 C          -0.159     3.640    -0.483  C    
     22 O          -0.648     2.622    -0.955  O    
     23 C          -0.877     4.879    -0.695  C    
     24 O          -0.912     5.140    -2.111  O    
     25 C          -1.572     6.289    -2.450  C    
     26 C          -0.857     7.504    -2.533  C    
     27 C          -1.515     8.689    -2.910  C    
     28 C          -2.889     8.664    -3.215  C    
     29 C          -3.603     7.452    -3.153  C    
     30 C          -2.946     6.257    -2.791  C    
     31 O          -3.665     5.094    -2.707  O    
     32 C          -3.572     4.268    -3.879  C    
     33 H           8.774    -8.773    -0.550  H    
     34 H           8.418    -9.375     1.080  H    
     35 H           9.794    -8.287     0.816  H    
     36 H           6.849    -7.554     0.430  H    
     37 H           7.855    -7.079     1.822  H    
     38 H           8.481    -4.357     1.911  H    
     39 H           7.188    -2.340     2.049  H    
     40 H           5.242    -3.340    -1.563  H    
     41 H           6.541    -5.367    -1.684  H    
     42 H           4.755    -1.381    -0.535  H    
     43 H           2.530    -0.647     0.493  H    
     44 H           0.810     0.911    -0.039  H    
     45 H           3.351     4.099     1.063  H    
     46 H           5.067     2.526     1.610  H    
     47 H           1.297     4.551     0.422  H    
     48 H          -1.888     4.774    -0.290  H    
     49 H          -0.385     5.708    -0.172  H    
     50 H           0.142     7.526    -2.316  H    
     51 H          -0.995     9.569    -2.960  H    
     52 H          -3.368     9.527    -3.482  H    
     53 H          -4.602     7.442    -3.375  H    
     54 H          -3.941     4.789    -4.765  H    
     55 H          -4.190     3.383    -3.721  H    
     56 H          -2.544     3.938    -4.051  H    
@<TRIPOS>BOND
     1    1    2 1
     2    2    3 1
     3    3    4 1
     4    4    9 ar
     5    4    5 ar
     6    5    6 ar
     7    6    7 ar
     8    7    8 ar
     9    7   10 1
    10    8    9 ar
    11   10   11 1
    12   11   12 2
    13   11   13 2
    14   11   14 1
    15   14   19 ar
    16   14   15 ar
    17   15   16 ar
    18   16   17 ar
    19   17   18 ar
    20   17   20 1
    21   18   19 ar
    22   20   21 1
    23   21   22 2
    24   21   23 1
    25   23   24 1
    26   24   25 1
    27   25   30 ar
    28   25   26 ar
    29   26   27 ar
    30   27   28 ar
    31   28   29 ar
    32   29   30 ar
    33   30   31 1
    34   31   32 1
    35    1   33 1
    36    1   34 1
    37    1   35 1
    38    2   36 1
    39    2   37 1
    40    5   38 1
    41    6   39 1
    42    8   40 1
    43    9   41 1
    44   10   42 1
    45   15   43 1
    46   16   44 1
    47   18   45 1
    48   19   46 1
    49   20   47 1
    50   23   48 1
    51   23   49 1
    52   26   50 1
    53   27   51 1
    54   28   52 1
    55   29   53 1
    56   32   54 1
    57   32   55 1
    58   32   56 1
@<TRIPOS>MOLECULE
ZINC00737542
 68 70 0 0 0
SMALL
NO_CHARGES


@<TRIPOS>ATOM
      1 C           3.481     1.219     2.283  C    
      2 C           2.726     2.262     3.155  C    
      3 C           1.210     2.262     2.770  C    
      4 N           0.552     3.408     3.370  N    
      5 C           0.639     3.423     4.819  C    
      6 C           2.131     3.385     5.244  C    
      7 N           2.820     2.252     4.628  N    
      8 C           3.440     1.300     5.366  C    
      9 O           4.000     0.371     4.807  O    
     10 C           3.545     1.304     6.832  C    
     11 C           4.338     0.161     7.565  C    
     12 C           4.602     0.538     9.049  C    
     13 C           3.624    -1.221     7.493  C    
     14 C          -0.064     4.421     2.662  C    
     15 C           0.085     4.649     1.267  C    
     16 C          -0.597     5.723     0.663  C    
     17 N          -1.387     6.531     1.407  N    
     18 C          -1.543     6.325     2.737  C    
     19 N          -0.880     5.296     3.324  N    
     20 S          -2.560     7.350     3.703  S    
     21 C          -4.118     6.972     2.862  C    
     22 C          -5.233     7.623     3.513  C    
     23 O          -6.111     6.934     4.018  O    
     24 N          -5.303     8.949     3.518  N    
     25 C          -6.362     9.736     4.070  C    
     26 C          -7.647     9.702     3.205  C    
     27 C         -10.099    10.193     3.138  C    
     28 C         -11.059    11.164     3.845  C    
     29 C         -10.156    12.308     4.340  C    
     30 C          -8.712    11.819     4.095  C    
     31 Cl         -0.438     6.043    -0.989  Cl   
     32 N          -8.815    10.360     3.859  N    
     33 H           4.547     1.240     2.512  H    
     34 H           3.369     1.452     1.224  H    
     35 H           3.091     0.215     2.456  H    
     36 H           3.142     3.220     2.826  H    
     37 H           1.093     2.212     1.692  H    
     38 H           0.748     1.346     3.150  H    
     39 H           0.181     4.298     5.284  H    
     40 H           0.128     2.551     5.229  H    
     41 H           2.612     4.310     4.919  H    
     42 H           2.159     3.412     6.329  H    
     43 H           4.031     2.246     7.088  H    
     44 H           2.533     1.316     7.247  H    
     45 H           5.314     0.056     7.081  H    
     46 H           5.134     1.491     9.108  H    
     47 H           5.223    -0.223     9.532  H    
     48 H           3.662     0.624     9.600  H    
     49 H           2.591    -1.152     7.853  H    
     50 H           4.154    -1.957     8.103  H    
     51 H           3.613    -1.606     6.467  H    
     52 H           0.704     4.088     0.686  H    
     53 H          -4.064     7.306     1.823  H    
     54 H          -4.256     5.884     2.859  H    
     55 H          -4.558     9.430     3.124  H    
     56 H          -6.582     9.402     5.090  H    
     57 H          -6.003    10.767     4.126  H    
     58 H          -7.440    10.173     2.240  H    
     59 H          -7.910     8.658     3.015  H    
     60 H         -10.464     9.167     3.208  H    
     61 H         -10.001    10.464     2.081  H    
     62 H         -11.834    11.523     3.165  H    
     63 H         -11.535    10.667     4.695  H    
     64 H         -10.351    13.233     3.791  H    
     65 H         -10.325    12.492     5.406  H    
     66 H          -8.288    12.331     3.223  H    
     67 H          -8.084    12.026     4.966  H    
     68 H          -8.932     9.920     4.774  H    
@<TRIPOS>BOND
     1    1    2 1
     2    2    7 1
     3    2    3 1
     4    3    4 1
     5    4    5 1
     6    4   14 1
     7    5    6 1
     8    6    7 1
     9    7    8 1
    10    8    9 2
    11    8   10 1
    12   10   11 1
    13   11   12 1
    14   11   13 1
    15   14   19 ar
    16   14   15 ar
    17   15   16 ar
    18   16   17 ar
    19   16   31 1
    20   17   18 ar
    21   18   19 ar
    22   18   20 1
    23   20   21 1
    24   21   22 1
    25   22   23 2
    26   22   24 1
    27   24   25 1
    28   25   26 1
    29   26   32 1
    30   27   28 1
    31   27   32 1
    32   28   29 1
    33   29   30 1
    34   30   32 1
    35    1   33 1
    36    1   34 1
    37    1   35 1
    38    2   36 1
    39    3   37 1
    40    3   38 1
    41    5   39 1
    42    5   40 1
    43    6   41 1
    44    6   42 1
    45   10   43 1
    46   10   44 1
    47   11   45 1
    48   12   46 1
    49   12   47 1
    50   12   48 1
    51   13   49 1
    52   13   50 1
    53   13   51 1
    54   15   52 1
    55   21   53 1
    56   21   54 1
    57   24   55 1
    58   25   56 1
    59   25   57 1
    60   26   58 1
    61   26   59 1
    62   27   60 1
    63   27   61 1
    64   28   62 1
    65   28   63 1
    66   29   64 1
    67   29   65 1
    68   30   66 1
    69   30   67 1
    70   32   68 1
@<TRIPOS>MOLECULE
ZINC00779016
 68 71 0 0 0
SMALL
NO_CHARGES


@<TRIPOS>ATOM
      1 C           9.001    -8.830    -5.013  C    
      2 C           7.689    -8.610    -4.238  C    
      3 O           7.664    -9.490    -3.098  O    
      4 C           6.539    -9.353    -2.329  C    
      5 C           6.503    -8.376    -1.313  C    
      6 C           5.364    -8.216    -0.488  C    
      7 C           4.264    -9.081    -0.690  C    
      8 C           4.300   -10.071    -1.688  C    
      9 C           5.435   -10.213    -2.507  C    
     10 O           5.439   -11.185    -3.455  O    
     11 C           5.314    -7.156     0.567  C    
     12 C           5.446    -5.814     0.034  C    
     13 C           6.509    -5.214     0.574  C    
     14 C           7.083    -6.047     1.439  C    
     15 O           8.073    -5.757     2.097  O    
     16 N           6.420    -7.193     1.484  N    
     17 C           6.743    -8.322     2.328  C    
     18 C           5.633    -8.636     3.365  C    
     19 C           6.028    -9.769     4.352  C    
     20 C           5.603   -10.707     6.617  C    
     21 C           4.548   -10.881     7.737  C    
     22 O           3.376   -11.551     7.235  O    
     23 C           2.761   -10.871     6.124  C    
     24 C           3.767   -10.689     4.961  C    
     25 O           6.933    -3.977     0.333  O    
     26 C           4.592    -5.255    -0.861  C    
     27 O           4.977    -5.276    -2.024  O    
     28 C           3.300    -4.813    -0.537  C    
     29 C           2.905    -4.560     0.803  C    
     30 C           1.603    -4.133     1.116  C    
     31 C           0.645    -3.940     0.100  C    
     32 C           1.024    -4.176    -1.239  C    
     33 C           2.329    -4.599    -1.550  C    
     34 C          -0.723    -3.500     0.453  C    
     35 N           5.013   -10.002     5.433  N    
     36 H           9.857    -8.648    -4.360  H    
     37 H           9.054    -8.140    -5.859  H    
     38 H           9.049    -9.854    -5.389  H    
     39 H           7.643    -7.562    -3.924  H    
     40 H           6.848    -8.818    -4.906  H    
     41 H           7.316    -7.770    -1.183  H    
     42 H           3.425    -8.997    -0.111  H    
     43 H           3.496   -10.692    -1.815  H    
     44 H           6.323   -11.154    -3.873  H    
     45 H           4.380    -7.207     1.135  H    
     46 H           6.904    -9.200     1.697  H    
     47 H           7.679    -8.145     2.866  H    
     48 H           5.415    -7.730     3.937  H    
     49 H           4.730    -8.927     2.827  H    
     50 H           6.208   -10.694     3.795  H    
     51 H           6.979    -9.473     4.805  H    
     52 H           6.436   -10.127     7.026  H    
     53 H           5.981   -11.692     6.325  H    
     54 H           4.970   -11.486     8.542  H    
     55 H           4.277    -9.906     8.154  H    
     56 H           1.915   -11.471     5.782  H    
     57 H           2.376    -9.898     6.445  H    
     58 H           4.008   -11.672     4.543  H    
     59 H           3.271   -10.102     4.185  H    
     60 H           6.336    -3.620    -0.358  H    
     61 H           3.567    -4.678     1.574  H    
     62 H           1.356    -3.964     2.095  H    
     63 H           0.352    -4.045    -1.998  H    
     64 H           2.556    -4.767    -2.534  H    
     65 H          -1.183    -4.230     1.120  H    
     66 H          -1.361    -3.394    -0.428  H    
     67 H          -0.679    -2.536     0.961  H    
     68 H           4.729    -9.077     5.767  H    
@<TRIPOS>BOND
     1    1    2 1
     2    2    3 1
     3    3    4 1
     4    4    9 ar
     5    4    5 ar
     6    5    6 ar
     7    6    7 ar
     8    6   11 1
     9    7    8 ar
    10    8    9 ar
    11    9   10 1
    12   11   16 1
    13   11   12 1
    14   12   13 2
    15   12   26 1
    16   13   14 1
    17   13   25 1
    18   14   15 2
    19   14   16 1
    20   16   17 1
    21   17   18 1
    22   18   19 1
    23   19   35 1
    24   20   21 1
    25   20   35 1
    26   21   22 1
    27   22   23 1
    28   23   24 1
    29   24   35 1
    30   26   27 2
    31   26   28 1
    32   28   33 ar
    33   28   29 ar
    34   29   30 ar
    35   30   31 ar
    36   31   32 ar
    37   31   34 1
    38   32   33 ar
    39    1   36 1
    40    1   37 1
    41    1   38 1
    42    2   39 1
    43    2   40 1
    44    5   41 1
    45    7   42 1
    46    8   43 1
    47   10   44 1
    48   11   45 1
    49   17   46 1
    50   17   47 1
    51   18   48 1
    52   18   49 1
    53   19   50 1
    54   19   51 1
    55   20   52 1
    56   20   53 1
    57   21   54 1
    58   21   55 1
    59   23   56 1
    60   23   57 1
    61   24   58 1
    62   24   59 1
    63   25   60 1
    64   29   61 1
    65   30   62 1
    66   32   63 1
    67   33   64 1
    68   34   65 1
    69   34   66 1
    70   34   67 1
    71   35   68 1
@<TRIPOS>MOLECULE
ZINC00903446
 66 70 0 0 0
SMALL
NO_CHARGES


@<TRIPOS>ATOM
      1 C           1.454    -8.836    10.556  C    
      2 C           0.947    -7.442    10.995  C    
      3 C          -0.566    -7.194    10.671  C    
      4 C          -1.036    -5.885    11.135  C    
      5 O          -2.007    -5.830    11.880  O    
      6 N          -0.450    -4.765    10.736  N    
      7 C          -0.874    -3.420    11.002  C    
      8 C          -2.168    -3.042    10.245  C    
      9 C          -1.707    -2.680     8.818  C    
     10 C          -0.227    -2.250     8.938  C    
     11 C           0.149    -2.416    10.426  C    
     12 N          -0.986    -7.454     9.274  N    
     13 C          -2.105    -8.384     9.102  C    
     14 C          -3.391    -7.803     9.585  C    
     15 C          -4.157    -8.438    10.596  C    
     16 C          -5.363    -7.874    11.052  C    
     17 C          -5.806    -6.660    10.499  C    
     18 C          -5.069    -6.029     9.509  C    
     19 C          -3.867    -6.583     9.037  C    
     20 O          -5.651    -4.884     9.104  O    
     21 C          -6.709    -4.748    10.069  C    
     22 O          -6.916    -5.969    10.805  O    
     23 C          -0.419    -6.829     8.211  C    
     24 O           0.507    -6.051     8.397  O    
     25 C          -0.780    -7.027     6.800  C    
     26 N          -0.219    -6.117     5.890  N    
     27 N          -0.524    -4.889     5.847  N    
     28 C           0.197    -4.354     4.857  C    
     29 N           0.914    -5.367     4.358  N    
     30 N           0.613    -6.395     5.021  N    
     31 C           0.198    -3.003     4.424  C    
     32 C          -0.662    -2.047     5.020  C    
     33 C          -0.653    -0.704     4.593  C    
     34 C           0.210    -0.294     3.560  C    
     35 C           1.064    -1.235     2.954  C    
     36 C           1.059    -2.579     3.382  C    
     37 Cl          0.223     1.319     3.048  Cl   
     38 H           0.882    -9.624    11.050  H    
     39 H           2.506    -8.949    10.828  H    
     40 H           1.364    -8.959     9.475  H    
     41 H           1.095    -7.363    12.078  H    
     42 H           1.582    -6.686    10.532  H    
     43 H          -1.062    -7.929    11.321  H    
     44 H           0.347    -4.859    10.195  H    
     45 H          -0.984    -3.267    12.079  H    
     46 H          -2.903    -3.851    10.237  H    
     47 H          -2.626    -2.167    10.719  H    
     48 H          -1.793    -3.557     8.172  H    
     49 H          -2.324    -1.878     8.404  H    
     50 H           0.402    -2.892     8.318  H    
     51 H          -0.090    -1.213     8.618  H    
     52 H           0.046    -1.455    10.940  H    
     53 H           1.181    -2.760    10.547  H    
     54 H          -2.274    -8.699     8.073  H    
     55 H          -1.867    -9.311     9.635  H    
     56 H          -3.837    -9.318    11.009  H    
     57 H          -5.914    -8.338    11.779  H    
     58 H          -3.344    -6.081     8.316  H    
     59 H          -6.448    -3.947    10.769  H    
     60 H          -7.632    -4.472     9.554  H    
     61 H          -0.493    -8.047     6.530  H    
     62 H          -1.861    -6.946     6.675  H    
     63 H          -1.306    -2.319     5.768  H    
     64 H          -1.282    -0.032     5.041  H    
     65 H           1.696    -0.952     2.200  H    
     66 H           1.692    -3.241     2.924  H    
@<TRIPOS>BOND
     1    1    2 1
     2    2    3 1
     3    3    4 1
     4    3   12 1
     5    4    5 2
     6    4    6 1
     7    6    7 1
     8    7   11 1
     9    7    8 1
    10    8    9 1
    11    9   10 1
    12   10   11 1
    13   12   13 1
    14   12   23 1
    15   13   14 1
    16   14   19 ar
    17   14   15 ar
    18   15   16 ar
    19   16   17 ar
    20   17   22 1
    21   17   18 ar
    22   18   19 ar
    23   18   20 1
    24   20   21 1
    25   21   22 1
    26   23   24 2
    27   23   25 1
    28   25   26 1
    29   26   30 1
    30   26   27 1
    31   27   28 2
    32   28   29 1
    33   28   31 1
    34   29   30 2
    35   31   36 ar
    36   31   32 ar
    37   32   33 ar
    38   33   34 ar
    39   34   35 ar
    40   34   37 1
    41   35   36 ar
    42    1   38 1
    43    1   39 1
    44    1   40 1
    45    2   41 1
    46    2   42 1
    47    3   43 1
    48    6   44 1
    49    7   45 1
    50    8   46 1
    51    8   47 1
    52    9   48 1
    53    9   49 1
    54   10   50 1
    55   10   51 1
    56   11   52 1
    57   11   53 1
    58   13   54 1
    59   13   55 1
    60   15   56 1
    61   16   57 1
    62   19   58 1
    63   21   59 1
    64   21   60 1
    65   25   61 1
    66   25   62 1
    67   32   63 1
    68   33   64 1
    69   35   65 1
    70   36   66 1
@<TRIPOS>MOLECULE
ZINC00922011
 67 70 0 0 0
SMALL
NO_CHARGES


@<TRIPOS>ATOM
      1 C          -0.330    -7.600    -7.531  C    
      2 O          -1.103    -6.412    -7.776  O    
      3 C          -0.332    -5.305    -8.017  C    
      4 C           0.249    -4.573    -6.966  C    
      5 C           1.015    -3.423    -7.234  C    
      6 C           1.196    -2.952    -8.558  C    
      7 C           0.568    -3.684    -9.598  C    
      8 C          -0.181    -4.845    -9.332  C    
      9 C           1.956    -1.689    -8.873  C    
     10 C           3.300    -1.532    -8.302  C    
     11 O           3.753    -2.329    -7.490  O    
     12 N           4.045    -0.509    -8.711  N    
     13 C           5.393    -0.175    -8.347  C    
     14 C           6.425    -1.256    -8.786  C    
     15 C           7.881    -0.839    -8.440  C    
     16 C           8.031    -0.481    -6.938  C    
     17 C           7.015     0.608    -6.507  C    
     18 C           5.556     0.194    -6.841  C    
     19 N           1.155    -0.470    -8.649  N    
     20 C           0.491    -0.313    -7.442  C    
     21 C           1.181    -0.173    -6.215  C    
     22 C           0.483    -0.095    -4.997  C    
     23 C          -0.921    -0.147    -4.983  C    
     24 C          -1.622    -0.251    -6.199  C    
     25 C          -0.926    -0.350    -7.413  C    
     26 O          -1.597    -0.060    -3.796  O    
     27 C          -1.938    -1.350    -3.261  C    
     28 C           1.064     0.496    -9.592  C    
     29 O           1.319     0.234   -10.764  O    
     30 C           0.878     1.922    -9.323  C    
     31 C           2.189     2.600    -9.271  C    
     32 C           3.067     2.843   -10.336  C    
     33 C           4.267     3.479    -9.979  C    
     34 C           4.385     3.758    -8.617  C    
     35 S           2.952     3.208    -7.852  S    
     36 H           0.357    -7.819    -8.354  H    
     37 H          -1.021    -8.435    -7.439  H    
     38 H           0.235    -7.520    -6.600  H    
     39 H           0.115    -4.875    -6.006  H    
     40 H           1.431    -2.928    -6.442  H    
     41 H           0.643    -3.371   -10.565  H    
     42 H          -0.627    -5.349   -10.095  H    
     43 H           2.199    -1.780    -9.935  H    
     44 H           3.636     0.081    -9.364  H    
     45 H           5.622     0.727    -8.918  H    
     46 H           6.207    -2.204    -8.293  H    
     47 H           6.347    -1.418    -9.865  H    
     48 H           8.562    -1.658    -8.690  H    
     49 H           8.160     0.026    -9.047  H    
     50 H           7.872    -1.379    -6.335  H    
     51 H           9.047    -0.124    -6.749  H    
     52 H           7.105     0.786    -5.432  H    
     53 H           7.248     1.546    -7.019  H    
     54 H           4.887     1.022    -6.592  H    
     55 H           5.282    -0.656    -6.215  H    
     56 H           2.197    -0.134    -6.198  H    
     57 H           1.003    -0.001    -4.120  H    
     58 H          -2.643    -0.286    -6.200  H    
     59 H          -1.461    -0.466    -8.276  H    
     60 H          -2.581    -1.909    -3.939  H    
     61 H          -2.481    -1.196    -2.332  H    
     62 H          -1.044    -1.940    -3.040  H    
     63 H           0.262     2.381   -10.100  H    
     64 H           0.371     2.095    -8.379  H    
     65 H           2.856     2.576   -11.302  H    
     66 H           4.995     3.711   -10.657  H    
     67 H           5.175     4.213    -8.155  H    
@<TRIPOS>BOND
     1    1    2 1
     2    2    3 1
     3    3    8 ar
     4    3    4 ar
     5    4    5 ar
     6    5    6 ar
     7    6    7 ar
     8    6    9 1
     9    7    8 ar
    10    9   10 1
    11    9   19 1
    12   10   11 2
    13   10   12 1
    14   12   13 1
    15   13   18 1
    16   13   14 1
    17   14   15 1
    18   15   16 1
    19   16   17 1
    20   17   18 1
    21   19   20 1
    22   19   28 1
    23   20   25 ar
    24   20   21 ar
    25   21   22 ar
    26   22   23 ar
    27   23   24 ar
    28   23   26 1
    29   24   25 ar
    30   26   27 1
    31   28   29 2
    32   28   30 1
    33   30   31 1
    34   31   35 1
    35   31   32 2
    36   32   33 1
    37   33   34 2
    38   34   35 1
    39    1   36 1
    40    1   37 1
    41    1   38 1
    42    4   39 1
    43    5   40 1
    44    7   41 1
    45    8   42 1
    46    9   43 1
    47   12   44 1
    48   13   45 1
    49   14   46 1
    50   14   47 1
    51   15   48 1
    52   15   49 1
    53   16   50 1
    54   16   51 1
    55   17   52 1
    56   17   53 1
    57   18   54 1
    58   18   55 1
    59   21   56 1
    60   22   57 1
    61   24   58 1
    62   25   59 1
    63   27   60 1
    64   27   61 1
    65   27   62 1
    66   30   63 1
    67   30   64 1
    68   32   65 1
    69   33   66 1
    70   34   67 1
@<TRIPOS>MOLECULE
ZINC00925924
 75 79 0 0 0
SMALL
NO_CHARGES


@<TRIPOS>ATOM
      1 C         -11.091    10.157    -2.250  C    
      2 C         -10.185     9.485    -1.191  C    
      3 C          -8.770     9.938    -1.273  C    
      4 C          -8.419    11.251    -0.871  C    
      5 C          -7.087    11.698    -0.943  C    
      6 C          -6.083    10.833    -1.418  C    
      7 C          -6.410     9.511    -1.822  C    
      8 C          -7.752     9.075    -1.746  C    
      9 C          -5.372     8.699    -2.288  C    
     10 C          -4.090     9.139    -2.360  C    
     11 C          -3.822    10.445    -1.978  C    
     12 O          -2.710    10.943    -2.082  O    
     13 N          -4.784    11.246    -1.521  N    
     14 C          -3.029     8.242    -2.842  C    
     15 C          -2.966     6.641    -0.880  C    
     16 C          -3.497     7.258     0.450  C    
     17 C          -4.511     6.411     1.137  C    
     18 C          -4.198     5.083     1.514  C    
     19 C          -5.157     4.262     2.132  C    
     20 C          -6.438     4.768     2.427  C    
     21 C          -6.764     6.094     2.071  C    
     22 C          -5.800     6.910     1.439  C    
     23 O          -7.997     6.587     2.405  O    
     24 C          -8.928     6.619     1.308  C    
     25 O          -7.379     3.954     2.994  O    
     26 C          -7.346     3.945     4.430  C    
     27 C          -1.128     8.378    -1.180  C    
     28 C          -0.088     7.583    -0.493  C    
     29 N           0.171     7.639     0.817  N    
     30 N           1.095     6.813     1.041  N    
     31 N           1.440     6.250     0.008  N    
     32 N           0.770     6.670    -0.982  N    
     33 C           0.932     6.209    -2.335  C    
     34 C           0.563     4.723    -2.526  C    
     35 C           1.286     4.290    -3.818  C    
     36 C           2.409     5.323    -4.066  C    
     37 C           2.380     6.291    -2.866  C    
     38 N          -2.193     7.532    -1.812  N    
     39 H         -11.110    11.241    -2.115  H    
     40 H         -12.111     9.781    -2.153  H    
     41 H         -10.730     9.928    -3.257  H    
     42 H         -10.574     9.704    -0.193  H    
     43 H         -10.255     8.402    -1.334  H    
     44 H          -9.137    11.890    -0.518  H    
     45 H          -6.852    12.652    -0.650  H    
     46 H          -7.991     8.124    -2.042  H    
     47 H          -5.592     7.767    -2.561  H    
     48 H          -4.560    12.159    -1.274  H    
     49 H          -3.464     7.466    -3.482  H    
     50 H          -2.374     8.795    -3.522  H    
     51 H          -2.303     5.812    -0.620  H    
     52 H          -3.802     6.192    -1.422  H    
     53 H          -2.662     7.397     1.138  H    
     54 H          -3.907     8.246     0.243  H    
     55 H          -3.272     4.695     1.328  H    
     56 H          -4.919     3.299     2.371  H    
     57 H          -6.045     7.874     1.203  H    
     58 H          -8.638     7.392     0.588  H    
     59 H          -9.914     6.872     1.704  H    
     60 H          -8.997     5.650     0.799  H    
     61 H          -6.404     3.533     4.800  H    
     62 H          -8.157     3.308     4.785  H    
     63 H          -7.491     4.948     4.841  H    
     64 H          -1.571     9.081    -0.471  H    
     65 H          -0.611     8.965    -1.943  H    
     66 H           0.305     6.802    -3.010  H    
     67 H           0.927     4.126    -1.681  H    
     68 H          -0.519     4.590    -2.608  H    
     69 H           1.699     3.284    -3.706  H    
     70 H           0.584     4.284    -4.656  H    
     71 H           3.387     4.841    -4.155  H    
     72 H           2.208     5.877    -4.988  H    
     73 H           2.641     7.311    -3.163  H    
     74 H           3.090     5.952    -2.107  H    
     75 H          -1.664     6.869    -2.377  H    
@<TRIPOS>BOND
     1    1    2 1
     2    2    3 1
     3    3    8 ar
     4    3    4 ar
     5    4    5 ar
     6    5    6 ar
     7    6   13 1
     8    6    7 ar
     9    7    8 ar
    10    7    9 1
    11    9   10 2
    12   10   11 1
    13   10   14 1
    14   11   12 2
    15   11   13 1
    16   14   38 1
    17   15   16 1
    18   15   38 1
    19   16   17 1
    20   17   22 ar
    21   17   18 ar
    22   18   19 ar
    23   19   20 ar
    24   20   21 ar
    25   20   25 1
    26   21   22 ar
    27   21   23 1
    28   23   24 1
    29   25   26 1
    30   27   28 1
    31   27   38 1
    32   28   32 1
    33   28   29 2
    34   29   30 1
    35   30   31 2
    36   31   32 1
    37   32   33 1
    38   33   37 1
    39   33   34 1
    40   34   35 1
    41   35   36 1
    42   36   37 1
    43    1   39 1
    44    1   40 1
    45    1   41 1
    46    2   42 1
    47    2   43 1
    48    4   44 1
    49    5   45 1
    50    8   46 1
    51    9   47 1
    52   13   48 1
    53   14   49 1
    54   14   50 1
    55   15   51 1
    56   15   52 1
    57   16   53 1
    58   16   54 1
    59   18   55 1
    60   19   56 1
    61   22   57 1
    62   24   58 1
    63   24   59 1
    64   24   60 1
    65   26   61 1
    66   26   62 1
    67   26   63 1
    68   27   64 1
    69   27   65 1
    70   33   66 1
    71   34   67 1
    72   34   68 1
    73   35   69 1
    74   35   70 1
    75   36   71 1
    76   36   72 1
    77   37   73 1
    78   37   74 1
    79   38   75 1
@<TRIPOS>MOLECULE
ZINC00941727
 64 67 0 0 0
SMALL
NO_CHARGES


@<TRIPOS>ATOM
      1 C         -11.214    -0.031     5.191  C    
      2 C         -10.170     0.984     4.666  C    
      3 C          -9.560     1.977     5.614  C    
      4 C          -9.890     1.990     6.992  C    
      5 C          -9.297     2.905     7.873  C    
      6 C          -8.391     3.857     7.386  C    
      7 C          -8.059     3.914     6.013  C    
      8 C          -8.600     2.920     5.138  C    
      9 N          -8.225     2.835     3.823  N    
     10 C          -7.004     2.573     3.373  C    
     11 O          -6.052     2.476     4.140  O    
     12 C          -6.813     2.394     1.945  C    
     13 O          -5.451     2.213     1.532  O    
     14 C          -4.623     1.167     1.805  C    
     15 O          -5.068     0.122     2.541  O    
     16 C          -3.212     1.164     1.350  C    
     17 C          -2.802     2.428     0.527  C    
     18 C          -1.379     2.391     0.085  C    
     19 C          -1.038     2.176    -1.272  C    
     20 C           0.309     2.097    -1.671  C    
     21 C           1.335     2.240    -0.719  C    
     22 C           1.011     2.458     0.632  C    
     23 C          -0.336     2.538     1.033  C    
     24 N          -2.912    -0.061     0.629  N    
     25 C          -1.989    -0.955     0.982  C    
     26 O          -1.257    -0.910     1.963  O    
     27 C          -1.964    -1.961     0.065  C    
     28 C          -1.191    -3.136    -0.041  C    
     29 C          -1.422    -4.003    -1.129  C    
     30 C          -2.400    -3.685    -2.102  C    
     31 C          -3.160    -2.501    -1.988  C    
     32 C          -2.926    -1.648    -0.891  C    
     33 C          -3.483    -0.470    -0.502  C    
     34 O          -4.373     0.100    -1.119  O    
     35 C          -7.165     5.026     5.561  C    
     36 C          -7.733     6.441     5.836  C    
     37 H         -10.767    -0.674     5.951  H    
     38 H         -11.563    -0.661     4.371  H    
     39 H         -12.073     0.489     5.616  H    
     40 H          -9.360     0.397     4.222  H    
     41 H         -10.651     1.543     3.858  H    
     42 H         -10.557     1.322     7.379  H    
     43 H          -9.536     2.884     8.867  H    
     44 H          -7.984     4.520     8.049  H    
     45 H          -8.941     2.788     3.170  H    
     46 H          -7.407     1.542     1.602  H    
     47 H          -7.178     3.287     1.436  H    
     48 H          -2.627     1.196     2.274  H    
     49 H          -3.463     2.520    -0.339  H    
     50 H          -2.954     3.324     1.137  H    
     51 H          -1.771     2.059    -1.979  H    
     52 H           0.542     1.934    -2.654  H    
     53 H           2.315     2.186    -1.009  H    
     54 H           1.756     2.560     1.326  H    
     55 H          -0.553     2.695     2.020  H    
     56 H          -0.487    -3.361     0.666  H    
     57 H          -0.876    -4.861    -1.222  H    
     58 H          -2.563    -4.318    -2.889  H    
     59 H          -3.875    -2.269    -2.685  H    
     60 H          -6.195     4.929     6.062  H    
     61 H          -6.976     4.978     4.488  H    
     62 H          -8.733     6.542     5.404  H    
     63 H          -7.084     7.195     5.387  H    
     64 H          -7.790     6.640     6.908  H    
@<TRIPOS>BOND
     1    1    2 1
     2    2    3 1
     3    3    8 ar
     4    3    4 ar
     5    4    5 ar
     6    5    6 ar
     7    6    7 ar
     8    7    8 ar
     9    7   35 1
    10    8    9 1
    11    9   10 1
    12   10   11 2
    13   10   12 1
    14   12   13 1
    15   13   14 1
    16   14   15 2
    17   14   16 1
    18   16   17 1
    19   16   24 1
    20   17   18 1
    21   18   23 ar
    22   18   19 ar
    23   19   20 ar
    24   20   21 ar
    25   21   22 ar
    26   22   23 ar
    27   24   33 1
    28   24   25 1
    29   25   26 2
    30   25   27 1
    31   27   32 ar
    32   27   28 ar
    33   28   29 ar
    34   29   30 ar
    35   30   31 ar
    36   31   32 ar
    37   32   33 1
    38   33   34 2
    39   35   36 1
    40    1   37 1
    41    1   38 1
    42    1   39 1
    43    2   40 1
    44    2   41 1
    45    4   42 1
    46    5   43 1
    47    6   44 1
    48    9   45 1
    49   12   46 1
    50   12   47 1
    51   16   48 1
    52   17   49 1
    53   17   50 1
    54   19   51 1
    55   20   52 1
    56   21   53 1
    57   22   54 1
    58   23   55 1
    59   28   56 1
    60   29   57 1
    61   30   58 1
    62   31   59 1
    63   35   60 1
    64   35   61 1
    65   36   62 1
    66   36   63 1
    67   36   64 1
@<TRIPOS>MOLECULE
ZINC01159035
 57 58 0 0 0
SMALL
NO_CHARGES


@<TRIPOS>ATOM
      1 C           1.997    -7.737     2.888  C    
      2 C           2.995    -7.145     1.875  C    
      3 O           2.452    -7.223     0.552  O    
      4 C           3.034    -6.796    -0.599  C    
      5 O           4.268    -6.243    -0.535  O    
      6 C           2.371    -6.943    -1.845  C    
      7 C           0.955    -6.849    -2.018  C    
      8 C           0.516    -7.061    -3.346  C    
      9 S           1.926    -7.311    -4.294  S    
     10 C           3.087    -7.179    -3.035  C    
     11 N           4.441    -7.358    -3.142  N    
     12 C           5.186    -7.471    -4.231  C    
     13 O           4.719    -7.351    -5.357  O    
     14 C           6.607    -7.711    -4.069  C    
     15 O           7.277    -7.845    -5.345  O    
     16 C           8.628    -8.076    -5.266  C    
     17 C           9.534    -6.983    -5.285  C    
     18 C          10.919    -7.241    -5.210  C    
     19 C          11.421    -8.557    -5.158  C    
     20 C          10.508    -9.633    -5.200  C    
     21 C           9.114    -9.412    -5.270  C    
     22 C           8.185   -10.564    -5.391  C    
     23 C          12.883    -8.780    -5.085  C    
     24 C           9.046    -5.589    -5.428  C    
     25 C          -0.773    -7.138    -3.922  C    
     26 O          -0.895    -7.242    -5.270  O    
     27 O          -1.894    -7.227    -3.161  O    
     28 C          -3.242    -7.372    -3.621  C    
     29 C          -4.200    -7.404    -2.418  C    
     30 C           0.042    -6.495    -0.899  C    
     31 H           1.070    -7.159     2.885  H    
     32 H           2.428    -7.706     3.894  H    
     33 H           1.770    -8.777     2.637  H    
     34 H           3.185    -6.098     2.129  H    
     35 H           3.931    -7.704     1.920  H    
     36 H           4.921    -7.432    -2.302  H    
     37 H           7.028    -6.876    -3.501  H    
     38 H           6.733    -8.624    -3.479  H    
     39 H          11.580    -6.460    -5.210  H    
     40 H          10.863   -10.594    -5.190  H    
     41 H           7.520   -10.607    -4.527  H    
     42 H           8.713   -11.519    -5.453  H    
     43 H           7.583   -10.456    -6.295  H    
     44 H          13.365    -8.353    -5.967  H    
     45 H          13.137    -9.841    -5.038  H    
     46 H          13.287    -8.295    -4.194  H    
     47 H           8.432    -5.506    -6.325  H    
     48 H           9.865    -4.872    -5.516  H    
     49 H           8.451    -5.310    -4.560  H    
     50 H          -3.502    -6.532    -4.268  H    
     51 H          -3.338    -8.302    -4.188  H    
     52 H          -3.979    -8.264    -1.784  H    
     53 H          -5.233    -7.480    -2.766  H    
     54 H          -4.095    -6.492    -1.829  H    
     55 H          -0.081    -7.361    -0.245  H    
     56 H          -0.946    -6.171    -1.231  H    
     57 H           0.456    -5.665    -0.321  H    
@<TRIPOS>BOND
     1    1    2 1
     2    2    3 1
     3    3    4 1
     4    4    5 2
     5    4    6 1
     6    6   10 2
     7    6    7 1
     8    7    8 2
     9    7   30 1
    10    8    9 1
    11    8   25 1
    12    9   10 1
    13   10   11 1
    14   11   12 1
    15   12   13 2
    16   12   14 1
    17   14   15 1
    18   15   16 1
    19   16   21 ar
    20   16   17 ar
    21   17   18 ar
    22   17   24 1
    23   18   19 ar
    24   19   20 ar
    25   19   23 1
    26   20   21 ar
    27   21   22 1
    28   25   26 2
    29   25   27 1
    30   27   28 1
    31   28   29 1
    32    1   31 1
    33    1   32 1
    34    1   33 1
    35    2   34 1
    36    2   35 1
    37   11   36 1
    38   14   37 1
    39   14   38 1
    40   18   39 1
    41   20   40 1
    42   22   41 1
    43   22   42 1
    44   22   43 1
    45   23   44 1
    46   23   45 1
    47   23   46 1
    48   24   47 1
    49   24   48 1
    50   24   49 1
    51   28   50 1
    52   28   51 1
    53   29   52 1
    54   29   53 1
    55   29   54 1
    56   30   55 1
    57   30   56 1
    58   30   57 1
@<TRIPOS>MOLECULE
ZINC01324452
 55 56 0 0 0
SMALL
NO_CHARGES


@<TRIPOS>ATOM
      1 C          -1.269    -1.859    -1.788  C    
      2 C           0.225    -1.882    -2.200  C    
      3 C           0.886    -3.177    -2.165  C    
      4 O           0.281    -4.169    -1.774  O    
      5 N           2.165    -3.219    -2.514  N    
      6 C           3.038    -4.273    -2.603  C    
      7 C           2.649    -5.621    -2.797  C    
      8 C           3.609    -6.646    -2.918  C    
      9 C           4.989    -6.354    -2.804  C    
     10 C           5.377    -5.006    -2.627  C    
     11 C           4.421    -3.972    -2.568  C    
     12 O           4.852    -2.680    -2.407  O    
     13 C           5.205    -2.038    -3.649  C    
     14 C           5.594    -0.574    -3.371  C    
     15 N           5.868    -7.394    -2.894  N    
     16 S           7.551    -7.289    -2.923  S    
     17 O           8.118    -6.850    -1.503  O    
     18 O           8.049    -8.788    -3.112  O    
     19 C           8.222    -6.408    -4.268  C    
     20 C           9.472    -5.760    -4.143  C    
     21 C          10.009    -5.041    -5.226  C    
     22 C           9.312    -4.970    -6.448  C    
     23 C           8.055    -5.601    -6.567  C    
     24 C           7.516    -6.325    -5.487  C    
     25 O           9.831    -4.260    -7.496  O    
     26 C          10.621    -5.069    -8.386  C    
     27 O           3.184    -7.933    -3.127  O    
     28 C           2.944    -8.229    -4.517  C    
     29 C           2.567    -9.714    -4.658  C    
     30 H          -1.854    -2.511    -2.441  H    
     31 H          -1.659    -0.843    -1.874  H    
     32 H          -1.384    -2.192    -0.753  H    
     33 H           0.297    -1.490    -3.219  H    
     34 H           0.768    -1.198    -1.541  H    
     35 H           2.556    -2.351    -2.704  H    
     36 H           1.663    -5.872    -2.898  H    
     37 H           6.366    -4.756    -2.565  H    
     38 H           6.059    -2.545    -4.112  H    
     39 H           4.364    -2.047    -4.352  H    
     40 H           4.743    -0.034    -2.948  H    
     41 H           5.899    -0.084    -4.299  H    
     42 H           6.426    -0.536    -2.664  H    
     43 H           5.491    -8.283    -2.994  H    
     44 H           9.996    -5.810    -3.266  H    
     45 H          10.915    -4.586    -5.128  H    
     46 H           7.534    -5.542    -7.445  H    
     47 H           6.608    -6.790    -5.595  H    
     48 H          11.476    -5.515    -7.867  H    
     49 H          11.002    -4.427    -9.182  H    
     50 H          10.020    -5.859    -8.843  H    
     51 H           2.118    -7.622    -4.903  H    
     52 H           3.838    -8.030    -5.119  H    
     53 H           3.392   -10.345    -4.322  H    
     54 H           2.346    -9.944    -5.703  H    
     55 H           1.681    -9.934    -4.056  H    
@<TRIPOS>BOND
     1    1    2 1
     2    2    3 1
     3    3    4 2
     4    3    5 1
     5    5    6 1
     6    6   11 ar
     7    6    7 ar
     8    7    8 ar
     9    8    9 ar
    10    8   27 1
    11    9   10 ar
    12    9   15 1
    13   10   11 ar
    14   11   12 1
    15   12   13 1
    16   13   14 1
    17   15   16 1
    18   16   17 2
    19   16   18 2
    20   16   19 1
    21   19   24 ar
    22   19   20 ar
    23   20   21 ar
    24   21   22 ar
    25   22   23 ar
    26   22   25 1
    27   23   24 ar
    28   25   26 1
    29   27   28 1
    30   28   29 1
    31    1   30 1
    32    1   31 1
    33    1   32 1
    34    2   33 1
    35    2   34 1
    36    5   35 1
    37    7   36 1
    38   10   37 1
    39   13   38 1
    40   13   39 1
    41   14   40 1
    42   14   41 1
    43   14   42 1
    44   15   43 1
    45   20   44 1
    46   21   45 1
    47   23   46 1
    48   24   47 1
    49   26   48 1
    50   26   49 1
    51   26   50 1
    52   28   51 1
    53   28   52 1
    54   29   53 1
    55   29   54 1
    56   29   55 1
@<TRIPOS>MOLECULE
ZINC00697180
 69 71 0 0 0
SMALL
NO_CHARGES


@<TRIPOS>ATOM
      1 C          -7.435     0.318     4.167  C    
      2 C          -6.365     0.222     3.057  C    
      3 C          -4.918     0.251     3.628  C    
      4 N          -3.962     0.294     2.529  N    
      5 C          -4.158     1.425     1.632  C    
      6 C          -5.603     1.384     1.058  C    
      7 O          -6.557     1.323     2.139  O    
      8 C          -5.924     2.619     0.185  C    
      9 C          -3.017    -0.655     2.353  C    
     10 O          -2.912    -1.557     3.179  O    
     11 C          -2.066    -0.681     1.235  C    
     12 C          -1.153    -1.848     1.140  C    
     13 C          -1.593    -3.148     0.866  C    
     14 S          -0.200    -4.146     0.835  S    
     15 C           0.911    -2.875     1.177  C    
     16 N           0.194    -1.737     1.302  N    
     17 N           2.255    -2.896     1.320  N    
     18 C           3.081    -3.928     1.203  C    
     19 O           2.677    -5.045     0.908  O    
     20 C           4.505    -3.697     1.407  C    
     21 N           5.370    -4.876     1.323  N    
     22 C           6.375    -4.930     0.260  C    
     23 C           6.017    -5.893    -0.918  C    
     24 C           4.971    -5.270    -1.886  C    
     25 C           7.291    -6.309    -1.704  C    
     26 C           5.252    -5.860     2.245  C    
     27 O           4.414    -5.790     3.137  O    
     28 C           6.017    -7.019     2.305  C    
     29 C           5.429    -8.274     2.014  C    
     30 C           6.188    -9.457     2.095  C    
     31 C           7.545    -9.405     2.472  C    
     32 C           8.127    -8.163     2.800  C    
     33 C           7.366    -6.981     2.722  C    
     34 O           8.287   -10.548     2.603  O    
     35 C           8.874   -11.001     1.371  C    
     36 H          -7.340     1.259     4.709  H    
     37 H          -7.329    -0.509     4.874  H    
     38 H          -8.432     0.267     3.726  H    
     39 H          -6.517    -0.721     2.521  H    
     40 H          -4.786     1.144     4.246  H    
     41 H          -4.796    -0.609     4.292  H    
     42 H          -4.019     2.348     2.199  H    
     43 H          -3.458     1.467     0.800  H    
     44 H          -5.709     0.493     0.431  H    
     45 H          -5.859     3.535     0.776  H    
     46 H          -6.934     2.535    -0.220  H    
     47 H          -5.223     2.690    -0.650  H    
     48 H          -2.627    -0.652     0.299  H    
     49 H          -1.456     0.223     1.294  H    
     50 H          -2.554    -3.453     0.706  H    
     51 H           2.670    -2.045     1.529  H    
     52 H           4.793    -2.932     0.681  H    
     53 H           4.645    -3.241     2.393  H    
     54 H           6.569    -3.943    -0.165  H    
     55 H           7.331    -5.216     0.698  H    
     56 H           5.576    -6.811    -0.515  H    
     57 H           4.049    -5.033    -1.354  H    
     58 H           4.721    -5.976    -2.681  H    
     59 H           5.360    -4.355    -2.338  H    
     60 H           7.796    -5.429    -2.111  H    
     61 H           7.034    -6.979    -2.529  H    
     62 H           7.986    -6.837    -1.045  H    
     63 H           4.447    -8.335     1.728  H    
     64 H           5.748   -10.357     1.886  H    
     65 H           9.102    -8.119     3.105  H    
     66 H           7.803    -6.092     2.979  H    
     67 H           8.101   -11.381     0.693  H    
     68 H           9.555   -11.822     1.601  H    
     69 H           9.448   -10.211     0.867  H    
@<TRIPOS>BOND
     1    1    2 1
     2    2    7 1
     3    2    3 1
     4    3    4 1
     5    4    5 1
     6    4    9 1
     7    5    6 1
     8    6    7 1
     9    6    8 1
    10    9   10 2
    11    9   11 1
    12   11   12 1
    13   12   16 1
    14   12   13 2
    15   13   14 1
    16   14   15 1
    17   15   16 2
    18   15   17 1
    19   17   18 1
    20   18   19 2
    21   18   20 1
    22   20   21 1
    23   21   22 1
    24   21   26 1
    25   22   23 1
    26   23   24 1
    27   23   25 1
    28   26   27 2
    29   26   28 1
    30   28   33 ar
    31   28   29 ar
    32   29   30 ar
    33   30   31 ar
    34   31   32 ar
    35   31   34 1
    36   32   33 ar
    37   34   35 1
    38    1   36 1
    39    1   37 1
    40    1   38 1
    41    2   39 1
    42    3   40 1
    43    3   41 1
    44    5   42 1
    45    5   43 1
    46    6   44 1
    47    8   45 1
    48    8   46 1
    49    8   47 1
    50   11   48 1
    51   11   49 1
    52   13   50 1
    53   17   51 1
    54   20   52 1
    55   20   53 1
    56   22   54 1
    57   22   55 1
    58   23   56 1
    59   24   57 1
    60   24   58 1
    61   24   59 1
    62   25   60 1
    63   25   61 1
    64   25   62 1
    65   29   63 1
    66   30   64 1
    67   32   65 1
    68   33   66 1
    69   35   67 1
    70   35   68 1
    71   35   69 1
@<TRIPOS>MOLECULE
ZINC00742532
 60 63 0 0 0
SMALL
NO_CHARGES


@<TRIPOS>ATOM
      1 C           6.531    -1.129    -4.826  C    
      2 C           6.922    -2.014    -3.805  C    
      3 C           6.604    -1.730    -2.463  C    
      4 C           5.884    -0.558    -2.122  C    
      5 C           5.491     0.318    -3.162  C    
      6 C           5.812     0.035    -4.503  C    
      7 C           5.543    -0.240    -0.708  C    
      8 N           4.102    -0.292    -0.468  N    
      9 C           3.530    -1.630    -0.364  C    
     10 C           3.855    -2.263     0.929  C    
     11 C           4.646    -3.400     1.149  C    
     12 C           4.791    -3.758     2.501  C    
     13 C           4.121    -2.922     3.394  C    
     14 S           3.334    -1.706     2.470  S    
     15 C           3.363     0.834    -0.343  C    
     16 O           3.909     1.926    -0.459  O    
     17 C           1.921     0.879    -0.082  C    
     18 N           1.358     2.216     0.101  N    
     19 C           1.309     2.728     1.467  C    
     20 C          -0.132     2.749     2.051  C    
     21 C          -0.756     1.352     2.231  C    
     22 C          -1.782     1.561     3.350  C    
     23 C          -1.388     2.922     3.960  C    
     24 O          -0.138     3.307     3.368  O    
     25 C           0.979     2.989    -0.944  C    
     26 O           0.585     4.133    -0.724  O    
     27 C           0.962     2.541    -2.338  C    
     28 C           0.722     3.590    -3.354  C    
     29 C           1.621     4.582    -3.773  C    
     30 C           1.111     5.460    -4.746  C    
     31 C          -0.205     5.195    -5.125  C    
     32 S          -0.740     3.828    -4.227  S    
     33 H           6.767    -1.335    -5.799  H    
     34 H           7.440    -2.865    -4.038  H    
     35 H           6.896    -2.386    -1.739  H    
     36 H           4.972     1.171    -2.953  H    
     37 H           5.527     0.678    -5.247  H    
     38 H           6.050    -0.928    -0.028  H    
     39 H           5.980     0.734    -0.477  H    
     40 H           2.445    -1.659    -0.456  H    
     41 H           3.901    -2.256    -1.177  H    
     42 H           5.085    -3.923     0.391  H    
     43 H           5.341    -4.564     2.803  H    
     44 H           4.106    -3.006     4.409  H    
     45 H           1.399     0.363    -0.888  H    
     46 H           1.728     0.278     0.806  H    
     47 H           1.940     2.148     2.146  H    
     48 H           1.720     3.746     1.502  H    
     49 H          -0.773     3.361     1.411  H    
     50 H          -1.218     0.995     1.307  H    
     51 H          -0.003     0.629     2.558  H    
     52 H          -2.797     1.599     2.948  H    
     53 H          -1.720     0.763     4.093  H    
     54 H          -2.147     3.682     3.736  H    
     55 H          -1.275     2.853     5.047  H    
     56 H           1.916     2.075    -2.591  H    
     57 H           0.182     1.786    -2.438  H    
     58 H           2.571     4.662    -3.408  H    
     59 H           1.658     6.227    -5.146  H    
     60 H          -0.757     5.716    -5.812  H    
@<TRIPOS>BOND
     1    1    6 ar
     2    1    2 ar
     3    2    3 ar
     4    3    4 ar
     5    4    5 ar
     6    4    7 1
     7    5    6 ar
     8    7    8 1
     9    8    9 1
    10    8   15 1
    11    9   10 1
    12   10   14 1
    13   10   11 2
    14   11   12 1
    15   12   13 2
    16   13   14 1
    17   15   16 2
    18   15   17 1
    19   17   18 1
    20   18   19 1
    21   18   25 1
    22   19   20 1
    23   20   24 1
    24   20   21 1
    25   21   22 1
    26   22   23 1
    27   23   24 1
    28   25   26 2
    29   25   27 1
    30   27   28 1
    31   28   32 1
    32   28   29 2
    33   29   30 1
    34   30   31 2
    35   31   32 1
    36    1   33 1
    37    2   34 1
    38    3   35 1
    39    5   36 1
    40    6   37 1
    41    7   38 1
    42    7   39 1
    43    9   40 1
    44    9   41 1
    45   11   42 1
    46   12   43 1
    47   13   44 1
    48   17   45 1
    49   17   46 1
    50   19   47 1
    51   19   48 1
    52   20   49 1
    53   21   50 1
    54   21   51 1
    55   22   52 1
    56   22   53 1
    57   23   54 1
    58   23   55 1
    59   27   56 1
    60   27   57 1
    61   29   58 1
    62   30   59 1
    63   31   60 1
